/*---------------------------------------------------------------------------*\
| =========                 |                                                 |
| \\      /  F ield         | OpenFOAM: The Open Source CFD Toolbox           |
|  \\    /   O peration     | Version:  5.x                                   |
|   \\  /    A nd           | Web:      www.OpenFOAM.org                      |
|    \\/     M anipulation  |                                                 |
\*---------------------------------------------------------------------------*/
Build  : 5.x-7f7d351b741b
Exec   : simpleFoam
Date   : Sep 27 2019
Time   : 13:31:45
Host   : "pop-os"
PID    : 21371
I/O    : uncollated
Case   : /home/hsharma/WORK/Project_OFTFCoupling/backwardFacingStep_KomegaSST
nProcs : 1
sigFpe : Enabling floating point exception trapping (FOAM_SIGFPE).
fileModificationChecking : Monitoring run-time modified files using timeStampMaster (fileModificationSkew 10)
allowSystemOperations : Allowing user-supplied system call operations

// * * * * * * * * * * * * * * * * * * * * * * * * * * * * * * * * * * * * * //
Create time

Create mesh for time = 0


SIMPLE: convergence criteria
    field p	 tolerance 0.001
    field U	 tolerance 1e-05

Reading field p

Reading field U

Reading/calculating face flux field phi

Selecting incompressible transport model Newtonian
Selecting turbulence model type RAS
Selecting RAS turbulence model kOmegaSST
Selecting patchDistMethod meshWave
RAS
{
    RASModel        kOmegaSST;
    turbulence      on;
    printCoeffs     on;
    alphaK1         0.85;
    alphaK2         1;
    alphaOmega1     0.5;
    alphaOmega2     0.856;
    gamma1          0.555556;
    gamma2          0.44;
    beta1           0.075;
    beta2           0.0828;
    betaStar        0.09;
    a1              0.31;
    b1              1;
    c1              10;
    F3              false;
}

No MRF models present

No finite volume options present


Starting time loop

Time = 1

smoothSolver:  Solving for Ux, Initial residual = 1, Final residual = 0.0131906, No Iterations 1
smoothSolver:  Solving for Uy, Initial residual = 0.999999, Final residual = 0.064624, No Iterations 2
GAMG:  Solving for p, Initial residual = 1, Final residual = 0.142917, No Iterations 8
time step continuity errors : sum local = 2.67058, global = -0.308133, cumulative = -0.308133
smoothSolver:  Solving for omega, Initial residual = 0.0663328, Final residual = 0.000181541, No Iterations 1
smoothSolver:  Solving for k, Initial residual = 1, Final residual = 0.00148697, No Iterations 1
ExecutionTime = 0.14 s  ClockTime = 0 s

Time = 2

smoothSolver:  Solving for Ux, Initial residual = 0.102223, Final residual = 0.00669168, No Iterations 2
smoothSolver:  Solving for Uy, Initial residual = 0.326566, Final residual = 0.0294508, No Iterations 2
GAMG:  Solving for p, Initial residual = 0.886642, Final residual = 0.123429, No Iterations 12
time step continuity errors : sum local = 3.64361, global = -0.027965, cumulative = -0.336098
smoothSolver:  Solving for omega, Initial residual = 0.0267385, Final residual = 7.56774e-05, No Iterations 1
smoothSolver:  Solving for k, Initial residual = 0.583002, Final residual = 0.00244503, No Iterations 1
ExecutionTime = 0.18 s  ClockTime = 0 s

Time = 3

smoothSolver:  Solving for Ux, Initial residual = 0.257388, Final residual = 0.0251432, No Iterations 2
smoothSolver:  Solving for Uy, Initial residual = 0.30151, Final residual = 0.0201621, No Iterations 3
GAMG:  Solving for p, Initial residual = 0.0712417, Final residual = 0.0116118, No Iterations 6
time step continuity errors : sum local = 4.75506, global = -0.682941, cumulative = -1.01904
smoothSolver:  Solving for omega, Initial residual = 0.010907, Final residual = 5.17175e-05, No Iterations 1
smoothSolver:  Solving for k, Initial residual = 0.253938, Final residual = 0.00161001, No Iterations 1
ExecutionTime = 0.21 s  ClockTime = 0 s

Time = 4

smoothSolver:  Solving for Ux, Initial residual = 0.347922, Final residual = 0.0341228, No Iterations 2
smoothSolver:  Solving for Uy, Initial residual = 0.180284, Final residual = 0.0109199, No Iterations 3
GAMG:  Solving for p, Initial residual = 0.0472174, Final residual = 0.00615999, No Iterations 4
time step continuity errors : sum local = 3.80682, global = -0.712938, cumulative = -1.73198
smoothSolver:  Solving for omega, Initial residual = 0.00503277, Final residual = 4.0456e-05, No Iterations 1
smoothSolver:  Solving for k, Initial residual = 0.144635, Final residual = 0.00136968, No Iterations 1
ExecutionTime = 0.24 s  ClockTime = 0 s

Time = 5

smoothSolver:  Solving for Ux, Initial residual = 0.312999, Final residual = 0.0179556, No Iterations 3
smoothSolver:  Solving for Uy, Initial residual = 0.110098, Final residual = 0.00975945, No Iterations 3
GAMG:  Solving for p, Initial residual = 0.0472825, Final residual = 0.00540563, No Iterations 3
time step continuity errors : sum local = 3.29188, global = 0.675459, cumulative = -1.05652
smoothSolver:  Solving for omega, Initial residual = 0.00284319, Final residual = 3.32741e-05, No Iterations 1
smoothSolver:  Solving for k, Initial residual = 0.0894213, Final residual = 0.00104298, No Iterations 1
ExecutionTime = 0.26 s  ClockTime = 0 s

Time = 6

smoothSolver:  Solving for Ux, Initial residual = 0.234393, Final residual = 0.0145338, No Iterations 3
smoothSolver:  Solving for Uy, Initial residual = 0.10839, Final residual = 0.0105816, No Iterations 3
GAMG:  Solving for p, Initial residual = 0.0577, Final residual = 0.0100228, No Iterations 6
time step continuity errors : sum local = 5.22981, global = 0.804312, cumulative = -0.252205
smoothSolver:  Solving for omega, Initial residual = 0.00188656, Final residual = 2.66041e-05, No Iterations 1
smoothSolver:  Solving for k, Initial residual = 0.066236, Final residual = 0.00080944, No Iterations 1
ExecutionTime = 0.3 s  ClockTime = 0 s

Time = 7

smoothSolver:  Solving for Ux, Initial residual = 0.144918, Final residual = 0.00976188, No Iterations 3
smoothSolver:  Solving for Uy, Initial residual = 0.15747, Final residual = 0.0132432, No Iterations 3
GAMG:  Solving for p, Initial residual = 0.0802797, Final residual = 0.011883, No Iterations 8
time step continuity errors : sum local = 4.31783, global = 0.64189, cumulative = 0.389685
smoothSolver:  Solving for omega, Initial residual = 0.00137131, Final residual = 2.12431e-05, No Iterations 1
smoothSolver:  Solving for k, Initial residual = 0.0560083, Final residual = 0.000663099, No Iterations 1
ExecutionTime = 0.33 s  ClockTime = 0 s

Time = 8

smoothSolver:  Solving for Ux, Initial residual = 0.059161, Final residual = 0.00454296, No Iterations 3
smoothSolver:  Solving for Uy, Initial residual = 0.183994, Final residual = 0.014056, No Iterations 3
GAMG:  Solving for p, Initial residual = 0.172432, Final residual = 0.0342519, No Iterations 6
time step continuity errors : sum local = 5.64512, global = 0.881417, cumulative = 1.2711
smoothSolver:  Solving for omega, Initial residual = 0.00107304, Final residual = 1.75083e-05, No Iterations 1
smoothSolver:  Solving for k, Initial residual = 0.0512485, Final residual = 0.000571264, No Iterations 1
ExecutionTime = 0.37 s  ClockTime = 0 s

Time = 9

smoothSolver:  Solving for Ux, Initial residual = 0.0574574, Final residual = 0.00421686, No Iterations 3
smoothSolver:  Solving for Uy, Initial residual = 0.153481, Final residual = 0.0103836, No Iterations 3
GAMG:  Solving for p, Initial residual = 0.168479, Final residual = 0.0253875, No Iterations 6
time step continuity errors : sum local = 4.19144, global = 0.593955, cumulative = 1.86506
smoothSolver:  Solving for omega, Initial residual = 0.000885239, Final residual = 1.48659e-05, No Iterations 1
smoothSolver:  Solving for k, Initial residual = 0.0499676, Final residual = 0.000517553, No Iterations 1
ExecutionTime = 0.42 s  ClockTime = 0 s

Time = 10

smoothSolver:  Solving for Ux, Initial residual = 0.0950396, Final residual = 0.00628809, No Iterations 3
smoothSolver:  Solving for Uy, Initial residual = 0.12161, Final residual = 0.00988849, No Iterations 3
GAMG:  Solving for p, Initial residual = 0.0858693, Final residual = 0.0169338, No Iterations 3
time step continuity errors : sum local = 5.34056, global = -0.462731, cumulative = 1.40233
smoothSolver:  Solving for omega, Initial residual = 0.000743219, Final residual = 1.25362e-05, No Iterations 1
smoothSolver:  Solving for k, Initial residual = 0.0502034, Final residual = 0.000485345, No Iterations 1
ExecutionTime = 0.46 s  ClockTime = 0 s

Time = 11

smoothSolver:  Solving for Ux, Initial residual = 0.100179, Final residual = 0.0064742, No Iterations 3
smoothSolver:  Solving for Uy, Initial residual = 0.107565, Final residual = 0.00656364, No Iterations 4
GAMG:  Solving for p, Initial residual = 0.0680093, Final residual = 0.010667, No Iterations 3
time step continuity errors : sum local = 4.10095, global = 0.530946, cumulative = 1.93327
smoothSolver:  Solving for omega, Initial residual = 0.000636054, Final residual = 1.09224e-05, No Iterations 1
smoothSolver:  Solving for k, Initial residual = 0.0525686, Final residual = 0.000480545, No Iterations 1
ExecutionTime = 0.49 s  ClockTime = 0 s

Time = 12

smoothSolver:  Solving for Ux, Initial residual = 0.0943466, Final residual = 0.00613829, No Iterations 3
smoothSolver:  Solving for Uy, Initial residual = 0.127908, Final residual = 0.00774002, No Iterations 4
GAMG:  Solving for p, Initial residual = 0.0706174, Final residual = 0.0110598, No Iterations 3
time step continuity errors : sum local = 3.77621, global = 0.530687, cumulative = 2.46396
smoothSolver:  Solving for omega, Initial residual = 0.000547247, Final residual = 9.30666e-06, No Iterations 1
smoothSolver:  Solving for k, Initial residual = 0.0550592, Final residual = 0.000483108, No Iterations 1
ExecutionTime = 0.52 s  ClockTime = 0 s

Time = 13

smoothSolver:  Solving for Ux, Initial residual = 0.0671487, Final residual = 0.00422774, No Iterations 3
smoothSolver:  Solving for Uy, Initial residual = 0.15242, Final residual = 0.0146075, No Iterations 3
GAMG:  Solving for p, Initial residual = 0.0914305, Final residual = 0.0112028, No Iterations 4
time step continuity errors : sum local = 2.85156, global = -0.574862, cumulative = 1.8891
smoothSolver:  Solving for omega, Initial residual = 0.000476361, Final residual = 8.09214e-06, No Iterations 1
smoothSolver:  Solving for k, Initial residual = 0.0583803, Final residual = 0.000497768, No Iterations 1
ExecutionTime = 0.55 s  ClockTime = 0 s

Time = 14

smoothSolver:  Solving for Ux, Initial residual = 0.0413661, Final residual = 0.00236953, No Iterations 3
smoothSolver:  Solving for Uy, Initial residual = 0.147051, Final residual = 0.0125004, No Iterations 3
GAMG:  Solving for p, Initial residual = 0.128512, Final residual = 0.0160274, No Iterations 4
time step continuity errors : sum local = 2.8921, global = -0.502644, cumulative = 1.38645
smoothSolver:  Solving for omega, Initial residual = 0.000415994, Final residual = 7.12468e-06, No Iterations 1
smoothSolver:  Solving for k, Initial residual = 0.0619177, Final residual = 0.000519077, No Iterations 1
ExecutionTime = 0.59 s  ClockTime = 0 s

Time = 15

smoothSolver:  Solving for Ux, Initial residual = 0.02781, Final residual = 0.0019259, No Iterations 3
smoothSolver:  Solving for Uy, Initial residual = 0.129945, Final residual = 0.0100682, No Iterations 3
GAMG:  Solving for p, Initial residual = 0.220694, Final residual = 0.0259838, No Iterations 4
time step continuity errors : sum local = 2.7546, global = -0.490904, cumulative = 0.895548
smoothSolver:  Solving for omega, Initial residual = 0.00036687, Final residual = 6.32841e-06, No Iterations 1
smoothSolver:  Solving for k, Initial residual = 0.0652037, Final residual = 0.00054115, No Iterations 1
ExecutionTime = 0.63 s  ClockTime = 0 s

Time = 16

smoothSolver:  Solving for Ux, Initial residual = 0.0319915, Final residual = 0.00243633, No Iterations 3
smoothSolver:  Solving for Uy, Initial residual = 0.106388, Final residual = 0.00893424, No Iterations 3
GAMG:  Solving for p, Initial residual = 0.209386, Final residual = 0.035588, No Iterations 3
time step continuity errors : sum local = 3.84987, global = 0.835094, cumulative = 1.73064
smoothSolver:  Solving for omega, Initial residual = 0.000328169, Final residual = 5.78239e-06, No Iterations 1
smoothSolver:  Solving for k, Initial residual = 0.0679224, Final residual = 0.000563429, No Iterations 1
ExecutionTime = 0.65 s  ClockTime = 0 s

Time = 17

smoothSolver:  Solving for Ux, Initial residual = 0.0352362, Final residual = 0.00268111, No Iterations 3
smoothSolver:  Solving for Uy, Initial residual = 0.0934375, Final residual = 0.00882294, No Iterations 3
GAMG:  Solving for p, Initial residual = 0.162659, Final residual = 0.0206349, No Iterations 3
time step continuity errors : sum local = 2.48283, global = 0.369815, cumulative = 2.10046
smoothSolver:  Solving for omega, Initial residual = 0.000298865, Final residual = 5.3143e-06, No Iterations 1
smoothSolver:  Solving for k, Initial residual = 0.0693403, Final residual = 0.000578734, No Iterations 1
ExecutionTime = 0.68 s  ClockTime = 0 s

Time = 18

smoothSolver:  Solving for Ux, Initial residual = 0.0357476, Final residual = 0.00263757, No Iterations 3
smoothSolver:  Solving for Uy, Initial residual = 0.0777133, Final residual = 0.00775648, No Iterations 3
GAMG:  Solving for p, Initial residual = 0.145812, Final residual = 0.0162981, No Iterations 3
time step continuity errors : sum local = 2.07677, global = 0.145857, cumulative = 2.24631
smoothSolver:  Solving for omega, Initial residual = 0.000270829, Final residual = 4.84967e-06, No Iterations 1
smoothSolver:  Solving for k, Initial residual = 0.0700903, Final residual = 0.000596273, No Iterations 1
ExecutionTime = 0.72 s  ClockTime = 0 s

Time = 19

smoothSolver:  Solving for Ux, Initial residual = 0.034125, Final residual = 0.00237104, No Iterations 3
smoothSolver:  Solving for Uy, Initial residual = 0.0658705, Final residual = 0.00653641, No Iterations 3
GAMG:  Solving for p, Initial residual = 0.152156, Final residual = 0.0188988, No Iterations 3
time step continuity errors : sum local = 2.35748, global = 0.330249, cumulative = 2.57656
smoothSolver:  Solving for omega, Initial residual = 0.000247143, Final residual = 4.47238e-06, No Iterations 1
smoothSolver:  Solving for k, Initial residual = 0.0702542, Final residual = 0.000617214, No Iterations 1
ExecutionTime = 0.75 s  ClockTime = 1 s

Time = 20

smoothSolver:  Solving for Ux, Initial residual = 0.0299177, Final residual = 0.00201471, No Iterations 3
smoothSolver:  Solving for Uy, Initial residual = 0.0647008, Final residual = 0.00556404, No Iterations 3
GAMG:  Solving for p, Initial residual = 0.168656, Final residual = 0.0165874, No Iterations 3
time step continuity errors : sum local = 1.90032, global = 0.278514, cumulative = 2.85508
smoothSolver:  Solving for omega, Initial residual = 0.000228106, Final residual = 4.19524e-06, No Iterations 1
smoothSolver:  Solving for k, Initial residual = 0.0698819, Final residual = 0.000642703, No Iterations 1
ExecutionTime = 0.78 s  ClockTime = 1 s

Time = 21

smoothSolver:  Solving for Ux, Initial residual = 0.0234896, Final residual = 0.00151651, No Iterations 3
smoothSolver:  Solving for Uy, Initial residual = 0.068396, Final residual = 0.00513205, No Iterations 3
GAMG:  Solving for p, Initial residual = 0.218632, Final residual = 0.0432896, No Iterations 2
time step continuity errors : sum local = 3.85675, global = -0.231011, cumulative = 2.62407
smoothSolver:  Solving for omega, Initial residual = 0.000212489, Final residual = 4.0019e-06, No Iterations 1
smoothSolver:  Solving for k, Initial residual = 0.068694, Final residual = 0.000674019, No Iterations 1
ExecutionTime = 0.8 s  ClockTime = 1 s

Time = 22

smoothSolver:  Solving for Ux, Initial residual = 0.0180464, Final residual = 0.00117784, No Iterations 3
smoothSolver:  Solving for Uy, Initial residual = 0.0754777, Final residual = 0.00557349, No Iterations 3
GAMG:  Solving for p, Initial residual = 0.237072, Final residual = 0.0268584, No Iterations 3
time step continuity errors : sum local = 2.34808, global = 0.336418, cumulative = 2.96048
smoothSolver:  Solving for omega, Initial residual = 0.000199101, Final residual = 3.85224e-06, No Iterations 1
smoothSolver:  Solving for k, Initial residual = 0.0668946, Final residual = 0.000713157, No Iterations 1
ExecutionTime = 0.82 s  ClockTime = 1 s

Time = 23

smoothSolver:  Solving for Ux, Initial residual = 0.0167478, Final residual = 0.00118201, No Iterations 3
smoothSolver:  Solving for Uy, Initial residual = 0.0879086, Final residual = 0.007463, No Iterations 3
GAMG:  Solving for p, Initial residual = 0.198805, Final residual = 0.0188381, No Iterations 3
time step continuity errors : sum local = 1.98723, global = 0.267065, cumulative = 3.22755
smoothSolver:  Solving for omega, Initial residual = 0.00018995, Final residual = 3.67039e-06, No Iterations 1
smoothSolver:  Solving for k, Initial residual = 0.0645727, Final residual = 0.000763386, No Iterations 1
ExecutionTime = 0.85 s  ClockTime = 1 s

Time = 24

smoothSolver:  Solving for Ux, Initial residual = 0.0178752, Final residual = 0.00131199, No Iterations 3
smoothSolver:  Solving for Uy, Initial residual = 0.103613, Final residual = 0.00851702, No Iterations 3
GAMG:  Solving for p, Initial residual = 0.17506, Final residual = 0.0317068, No Iterations 2
time step continuity errors : sum local = 3.64077, global = 0.540772, cumulative = 3.76832
smoothSolver:  Solving for omega, Initial residual = 0.000179767, Final residual = 3.57896e-06, No Iterations 1
smoothSolver:  Solving for k, Initial residual = 0.061495, Final residual = 0.00082688, No Iterations 1
ExecutionTime = 0.87 s  ClockTime = 1 s

Time = 25

smoothSolver:  Solving for Ux, Initial residual = 0.0181276, Final residual = 0.00130312, No Iterations 3
smoothSolver:  Solving for Uy, Initial residual = 0.105443, Final residual = 0.00897561, No Iterations 3
GAMG:  Solving for p, Initial residual = 0.168855, Final residual = 0.0275658, No Iterations 2
time step continuity errors : sum local = 3.04944, global = 0.300503, cumulative = 4.06882
smoothSolver:  Solving for omega, Initial residual = 0.000171166, Final residual = 3.50805e-06, No Iterations 1
smoothSolver:  Solving for k, Initial residual = 0.0579035, Final residual = 0.000893376, No Iterations 1
ExecutionTime = 0.9 s  ClockTime = 1 s

Time = 26

smoothSolver:  Solving for Ux, Initial residual = 0.0170786, Final residual = 0.00122848, No Iterations 3
smoothSolver:  Solving for Uy, Initial residual = 0.0950923, Final residual = 0.00873331, No Iterations 3
GAMG:  Solving for p, Initial residual = 0.164481, Final residual = 0.0251131, No Iterations 2
time step continuity errors : sum local = 2.74824, global = 0.107373, cumulative = 4.1762
smoothSolver:  Solving for omega, Initial residual = 0.000164236, Final residual = 3.46997e-06, No Iterations 1
smoothSolver:  Solving for k, Initial residual = 0.0538904, Final residual = 0.000962603, No Iterations 1
ExecutionTime = 0.92 s  ClockTime = 1 s

Time = 27

smoothSolver:  Solving for Ux, Initial residual = 0.0156952, Final residual = 0.00114576, No Iterations 3
smoothSolver:  Solving for Uy, Initial residual = 0.085926, Final residual = 0.00773494, No Iterations 3
GAMG:  Solving for p, Initial residual = 0.15915, Final residual = 0.0249635, No Iterations 2
time step continuity errors : sum local = 2.70241, global = 0.0544861, cumulative = 4.23068
smoothSolver:  Solving for omega, Initial residual = 0.000158088, Final residual = 3.46151e-06, No Iterations 1
smoothSolver:  Solving for k, Initial residual = 0.0496336, Final residual = 0.00102759, No Iterations 1
ExecutionTime = 0.95 s  ClockTime = 1 s

Time = 28

smoothSolver:  Solving for Ux, Initial residual = 0.0143102, Final residual = 0.00107753, No Iterations 3
smoothSolver:  Solving for Uy, Initial residual = 0.0754216, Final residual = 0.00658576, No Iterations 3
GAMG:  Solving for p, Initial residual = 0.153205, Final residual = 0.0255312, No Iterations 2
time step continuity errors : sum local = 2.74931, global = 0.15945, cumulative = 4.39013
smoothSolver:  Solving for omega, Initial residual = 0.000152726, Final residual = 3.45289e-06, No Iterations 1
smoothSolver:  Solving for k, Initial residual = 0.0453106, Final residual = 0.00107953, No Iterations 1
ExecutionTime = 0.98 s  ClockTime = 1 s

Time = 29

smoothSolver:  Solving for Ux, Initial residual = 0.0128339, Final residual = 0.000994129, No Iterations 3
smoothSolver:  Solving for Uy, Initial residual = 0.066105, Final residual = 0.00573931, No Iterations 3
GAMG:  Solving for p, Initial residual = 0.155599, Final residual = 0.0267081, No Iterations 2
time step continuity errors : sum local = 2.79627, global = 0.239398, cumulative = 4.62953
smoothSolver:  Solving for omega, Initial residual = 0.00014786, Final residual = 3.44991e-06, No Iterations 1
smoothSolver:  Solving for k, Initial residual = 0.0410992, Final residual = 0.00111256, No Iterations 1
ExecutionTime = 1.01 s  ClockTime = 1 s

Time = 30

smoothSolver:  Solving for Ux, Initial residual = 0.0112865, Final residual = 0.000918018, No Iterations 3
smoothSolver:  Solving for Uy, Initial residual = 0.0577888, Final residual = 0.00530593, No Iterations 3
GAMG:  Solving for p, Initial residual = 0.166283, Final residual = 0.0283303, No Iterations 2
time step continuity errors : sum local = 2.77138, global = 0.304406, cumulative = 4.93394
smoothSolver:  Solving for omega, Initial residual = 0.000143293, Final residual = 3.43551e-06, No Iterations 1
smoothSolver:  Solving for k, Initial residual = 0.0368666, Final residual = 0.00111125, No Iterations 1
ExecutionTime = 1.04 s  ClockTime = 1 s

Time = 31

smoothSolver:  Solving for Ux, Initial residual = 0.00974599, Final residual = 0.000835888, No Iterations 3
smoothSolver:  Solving for Uy, Initial residual = 0.0507894, Final residual = 0.00487418, No Iterations 3
GAMG:  Solving for p, Initial residual = 0.174881, Final residual = 0.0291027, No Iterations 2
time step continuity errors : sum local = 2.66821, global = 0.345286, cumulative = 5.27922
smoothSolver:  Solving for omega, Initial residual = 0.000138294, Final residual = 3.38918e-06, No Iterations 1
smoothSolver:  Solving for k, Initial residual = 0.0320768, Final residual = 0.00104321, No Iterations 1
ExecutionTime = 1.08 s  ClockTime = 1 s

Time = 32

smoothSolver:  Solving for Ux, Initial residual = 0.0087789, Final residual = 0.000773201, No Iterations 3
smoothSolver:  Solving for Uy, Initial residual = 0.0460599, Final residual = 0.00456443, No Iterations 3
GAMG:  Solving for p, Initial residual = 0.189717, Final residual = 0.0296617, No Iterations 2
time step continuity errors : sum local = 2.47197, global = 0.338951, cumulative = 5.61817
smoothSolver:  Solving for omega, Initial residual = 0.000132354, Final residual = 3.29452e-06, No Iterations 1
smoothSolver:  Solving for k, Initial residual = 0.0279931, Final residual = 0.000966946, No Iterations 1
ExecutionTime = 1.1 s  ClockTime = 1 s

Time = 33

smoothSolver:  Solving for Ux, Initial residual = 0.00875918, Final residual = 0.000724677, No Iterations 3
smoothSolver:  Solving for Uy, Initial residual = 0.0440376, Final residual = 0.00251508, No Iterations 4
GAMG:  Solving for p, Initial residual = 0.214389, Final residual = 0.0293881, No Iterations 2
time step continuity errors : sum local = 2.14506, global = 0.292125, cumulative = 5.9103
smoothSolver:  Solving for omega, Initial residual = 0.000126212, Final residual = 3.19629e-06, No Iterations 1
smoothSolver:  Solving for k, Initial residual = 0.0247978, Final residual = 0.000901676, No Iterations 1
ExecutionTime = 1.13 s  ClockTime = 1 s

Time = 34

smoothSolver:  Solving for Ux, Initial residual = 0.00910661, Final residual = 0.000716193, No Iterations 3
smoothSolver:  Solving for Uy, Initial residual = 0.0413746, Final residual = 0.00238445, No Iterations 4
GAMG:  Solving for p, Initial residual = 0.217227, Final residual = 0.0428514, No Iterations 1
time step continuity errors : sum local = 3.19047, global = -0.131259, cumulative = 5.77904
smoothSolver:  Solving for omega, Initial residual = 0.00012047, Final residual = 3.12265e-06, No Iterations 1
smoothSolver:  Solving for k, Initial residual = 0.0223331, Final residual = 0.000849264, No Iterations 1
ExecutionTime = 1.15 s  ClockTime = 1 s

Time = 35

smoothSolver:  Solving for Ux, Initial residual = 0.00861199, Final residual = 0.000726572, No Iterations 3
smoothSolver:  Solving for Uy, Initial residual = 0.0426599, Final residual = 0.00380653, No Iterations 3
GAMG:  Solving for p, Initial residual = 0.220343, Final residual = 0.0223602, No Iterations 2
time step continuity errors : sum local = 1.5668, global = 0.118002, cumulative = 5.89704
smoothSolver:  Solving for omega, Initial residual = 0.00011493, Final residual = 3.02028e-06, No Iterations 1
smoothSolver:  Solving for k, Initial residual = 0.0203187, Final residual = 0.000804049, No Iterations 1
ExecutionTime = 1.17 s  ClockTime = 1 s

Time = 36

smoothSolver:  Solving for Ux, Initial residual = 0.00922122, Final residual = 0.000707037, No Iterations 3
smoothSolver:  Solving for Uy, Initial residual = 0.049288, Final residual = 0.00391118, No Iterations 3
GAMG:  Solving for p, Initial residual = 0.214183, Final residual = 0.018468, No Iterations 2
time step continuity errors : sum local = 1.2503, global = 0.0420296, cumulative = 5.93907
smoothSolver:  Solving for omega, Initial residual = 0.000108656, Final residual = 2.87184e-06, No Iterations 1
smoothSolver:  Solving for k, Initial residual = 0.0186768, Final residual = 0.000763996, No Iterations 1
ExecutionTime = 1.2 s  ClockTime = 1 s

Time = 37

smoothSolver:  Solving for Ux, Initial residual = 0.00919857, Final residual = 0.000697842, No Iterations 3
smoothSolver:  Solving for Uy, Initial residual = 0.0480272, Final residual = 0.00421247, No Iterations 3
GAMG:  Solving for p, Initial residual = 0.216743, Final residual = 0.0420418, No Iterations 1
time step continuity errors : sum local = 2.86813, global = 0.0693457, cumulative = 6.00842
smoothSolver:  Solving for omega, Initial residual = 0.000103338, Final residual = 2.79076e-06, No Iterations 1
smoothSolver:  Solving for k, Initial residual = 0.0172755, Final residual = 0.000726862, No Iterations 1
ExecutionTime = 1.22 s  ClockTime = 1 s

Time = 38

smoothSolver:  Solving for Ux, Initial residual = 0.00884771, Final residual = 0.000721231, No Iterations 3
smoothSolver:  Solving for Uy, Initial residual = 0.0455738, Final residual = 0.00392892, No Iterations 3
GAMG:  Solving for p, Initial residual = 0.215295, Final residual = 0.0425975, No Iterations 1
time step continuity errors : sum local = 2.92243, global = 0.140878, cumulative = 6.1493
smoothSolver:  Solving for omega, Initial residual = 9.90462e-05, Final residual = 2.72381e-06, No Iterations 1
smoothSolver:  Solving for k, Initial residual = 0.0161022, Final residual = 0.000694597, No Iterations 1
ExecutionTime = 1.24 s  ClockTime = 1 s

Time = 39

smoothSolver:  Solving for Ux, Initial residual = 0.00839011, Final residual = 0.00069436, No Iterations 3
smoothSolver:  Solving for Uy, Initial residual = 0.0437565, Final residual = 0.00383646, No Iterations 3
GAMG:  Solving for p, Initial residual = 0.222172, Final residual = 0.0238616, No Iterations 2
time step continuity errors : sum local = 1.57724, global = -0.0157801, cumulative = 6.13352
smoothSolver:  Solving for omega, Initial residual = 9.38322e-05, Final residual = 2.58922e-06, No Iterations 1
smoothSolver:  Solving for k, Initial residual = 0.0151029, Final residual = 0.000665684, No Iterations 1
ExecutionTime = 1.26 s  ClockTime = 1 s

Time = 40

smoothSolver:  Solving for Ux, Initial residual = 0.00837328, Final residual = 0.000630984, No Iterations 3
smoothSolver:  Solving for Uy, Initial residual = 0.0446619, Final residual = 0.00403461, No Iterations 3
GAMG:  Solving for p, Initial residual = 0.204618, Final residual = 0.0378458, No Iterations 1
time step continuity errors : sum local = 2.70148, global = 0.275412, cumulative = 6.40893
smoothSolver:  Solving for omega, Initial residual = 8.90803e-05, Final residual = 2.51896e-06, No Iterations 1
smoothSolver:  Solving for k, Initial residual = 0.0141971, Final residual = 0.000638015, No Iterations 1
ExecutionTime = 1.29 s  ClockTime = 1 s

Time = 41

smoothSolver:  Solving for Ux, Initial residual = 0.00790697, Final residual = 0.000659623, No Iterations 3
smoothSolver:  Solving for Uy, Initial residual = 0.0420119, Final residual = 0.00390753, No Iterations 3
GAMG:  Solving for p, Initial residual = 0.20111, Final residual = 0.0362742, No Iterations 1
time step continuity errors : sum local = 2.8633, global = 0.343118, cumulative = 6.75204
smoothSolver:  Solving for omega, Initial residual = 8.43989e-05, Final residual = 2.44037e-06, No Iterations 1
smoothSolver:  Solving for k, Initial residual = 0.0134352, Final residual = 0.00061432, No Iterations 1
ExecutionTime = 1.31 s  ClockTime = 1 s

Time = 42

smoothSolver:  Solving for Ux, Initial residual = 0.00763264, Final residual = 0.000652789, No Iterations 3
smoothSolver:  Solving for Uy, Initial residual = 0.0432976, Final residual = 0.00394962, No Iterations 3
GAMG:  Solving for p, Initial residual = 0.210146, Final residual = 0.0365197, No Iterations 1
time step continuity errors : sum local = 2.79402, global = 0.392613, cumulative = 7.14466
smoothSolver:  Solving for omega, Initial residual = 8.03698e-05, Final residual = 2.34732e-06, No Iterations 1
smoothSolver:  Solving for k, Initial residual = 0.0127842, Final residual = 0.000594085, No Iterations 1
ExecutionTime = 1.33 s  ClockTime = 1 s

Time = 43

smoothSolver:  Solving for Ux, Initial residual = 0.00749652, Final residual = 0.000653942, No Iterations 3
smoothSolver:  Solving for Uy, Initial residual = 0.0442064, Final residual = 0.00410344, No Iterations 3
GAMG:  Solving for p, Initial residual = 0.212487, Final residual = 0.0394009, No Iterations 1
time step continuity errors : sum local = 2.88905, global = 0.252904, cumulative = 7.39756
smoothSolver:  Solving for omega, Initial residual = 7.7962e-05, Final residual = 2.2575e-06, No Iterations 1
smoothSolver:  Solving for k, Initial residual = 0.0121895, Final residual = 0.000574717, No Iterations 1
ExecutionTime = 1.35 s  ClockTime = 1 s

Time = 44

smoothSolver:  Solving for Ux, Initial residual = 0.00732311, Final residual = 0.00066405, No Iterations 3
smoothSolver:  Solving for Uy, Initial residual = 0.041942, Final residual = 0.00246672, No Iterations 4
GAMG:  Solving for p, Initial residual = 0.208034, Final residual = 0.0400293, No Iterations 1
time step continuity errors : sum local = 2.90202, global = 0.196387, cumulative = 7.59395
smoothSolver:  Solving for omega, Initial residual = 7.38631e-05, Final residual = 2.17512e-06, No Iterations 1
smoothSolver:  Solving for k, Initial residual = 0.0116373, Final residual = 0.000555915, No Iterations 1
ExecutionTime = 1.37 s  ClockTime = 1 s

Time = 45

smoothSolver:  Solving for Ux, Initial residual = 0.00702062, Final residual = 0.000642994, No Iterations 3
smoothSolver:  Solving for Uy, Initial residual = 0.0404333, Final residual = 0.00403769, No Iterations 3
GAMG:  Solving for p, Initial residual = 0.185397, Final residual = 0.0231995, No Iterations 2
time step continuity errors : sum local = 1.83278, global = -0.135878, cumulative = 7.45807
smoothSolver:  Solving for omega, Initial residual = 7.12535e-05, Final residual = 2.11449e-06, No Iterations 1
smoothSolver:  Solving for k, Initial residual = 0.0110721, Final residual = 0.000534325, No Iterations 1
ExecutionTime = 1.42 s  ClockTime = 1 s

Time = 46

smoothSolver:  Solving for Ux, Initial residual = 0.00697821, Final residual = 0.000650578, No Iterations 3
smoothSolver:  Solving for Uy, Initial residual = 0.0432536, Final residual = 0.00402451, No Iterations 3
GAMG:  Solving for p, Initial residual = 0.1551, Final residual = 0.0275411, No Iterations 1
time step continuity errors : sum local = 2.56543, global = 0.233286, cumulative = 7.69136
smoothSolver:  Solving for omega, Initial residual = 6.89004e-05, Final residual = 2.08004e-06, No Iterations 1
smoothSolver:  Solving for k, Initial residual = 0.0105525, Final residual = 0.000514614, No Iterations 1
ExecutionTime = 1.44 s  ClockTime = 1 s

Time = 47

smoothSolver:  Solving for Ux, Initial residual = 0.00664404, Final residual = 0.000401813, No Iterations 4
smoothSolver:  Solving for Uy, Initial residual = 0.041467, Final residual = 0.00407799, No Iterations 3
GAMG:  Solving for p, Initial residual = 0.155878, Final residual = 0.027472, No Iterations 1
time step continuity errors : sum local = 2.62947, global = 0.250204, cumulative = 7.94156
smoothSolver:  Solving for omega, Initial residual = 6.75193e-05, Final residual = 2.0507e-06, No Iterations 1
smoothSolver:  Solving for k, Initial residual = 0.0100204, Final residual = 0.000492124, No Iterations 1
ExecutionTime = 1.46 s  ClockTime = 1 s

Time = 48

smoothSolver:  Solving for Ux, Initial residual = 0.00635895, Final residual = 0.000387589, No Iterations 4
smoothSolver:  Solving for Uy, Initial residual = 0.0418499, Final residual = 0.00248047, No Iterations 4
GAMG:  Solving for p, Initial residual = 0.155165, Final residual = 0.0296585, No Iterations 1
time step continuity errors : sum local = 2.86954, global = 0.184943, cumulative = 8.1265
smoothSolver:  Solving for omega, Initial residual = 6.55308e-05, Final residual = 2.0004e-06, No Iterations 1
smoothSolver:  Solving for k, Initial residual = 0.00958985, Final residual = 0.000474446, No Iterations 1
ExecutionTime = 1.49 s  ClockTime = 1 s

Time = 49

smoothSolver:  Solving for Ux, Initial residual = 0.00648092, Final residual = 0.000647908, No Iterations 3
smoothSolver:  Solving for Uy, Initial residual = 0.044117, Final residual = 0.00259907, No Iterations 4
GAMG:  Solving for p, Initial residual = 0.153612, Final residual = 0.0123081, No Iterations 2
time step continuity errors : sum local = 1.14876, global = -0.0361435, cumulative = 8.09036
smoothSolver:  Solving for omega, Initial residual = 6.28195e-05, Final residual = 1.93646e-06, No Iterations 1
smoothSolver:  Solving for k, Initial residual = 0.00921828, Final residual = 0.000460034, No Iterations 1
ExecutionTime = 1.51 s  ClockTime = 1 s

Time = 50

smoothSolver:  Solving for Ux, Initial residual = 0.00748099, Final residual = 0.000666274, No Iterations 3
smoothSolver:  Solving for Uy, Initial residual = 0.0507757, Final residual = 0.00487197, No Iterations 3
GAMG:  Solving for p, Initial residual = 0.139641, Final residual = 0.0101368, No Iterations 2
time step continuity errors : sum local = 0.951069, global = 0.0477235, cumulative = 8.13808
smoothSolver:  Solving for omega, Initial residual = 5.98162e-05, Final residual = 1.87564e-06, No Iterations 1
smoothSolver:  Solving for k, Initial residual = 0.00885983, Final residual = 0.000445282, No Iterations 1
ExecutionTime = 1.56 s  ClockTime = 1 s

Time = 51

smoothSolver:  Solving for Ux, Initial residual = 0.00721072, Final residual = 0.000653616, No Iterations 3
smoothSolver:  Solving for Uy, Initial residual = 0.0513695, Final residual = 0.0029043, No Iterations 4
GAMG:  Solving for p, Initial residual = 0.137035, Final residual = 0.0263086, No Iterations 1
time step continuity errors : sum local = 2.54254, global = -0.0430475, cumulative = 8.09504
smoothSolver:  Solving for omega, Initial residual = 5.75486e-05, Final residual = 1.8145e-06, No Iterations 1
smoothSolver:  Solving for k, Initial residual = 0.00849225, Final residual = 0.00043004, No Iterations 1
ExecutionTime = 1.58 s  ClockTime = 1 s

Time = 52

smoothSolver:  Solving for Ux, Initial residual = 0.00694577, Final residual = 0.000642373, No Iterations 3
smoothSolver:  Solving for Uy, Initial residual = 0.0493716, Final residual = 0.00478687, No Iterations 3
GAMG:  Solving for p, Initial residual = 0.143989, Final residual = 0.0276536, No Iterations 1
time step continuity errors : sum local = 2.69442, global = -0.105704, cumulative = 7.98933
smoothSolver:  Solving for omega, Initial residual = 5.57397e-05, Final residual = 1.76515e-06, No Iterations 1
smoothSolver:  Solving for k, Initial residual = 0.00814369, Final residual = 0.000415406, No Iterations 1
ExecutionTime = 1.6 s  ClockTime = 1 s

Time = 53

smoothSolver:  Solving for Ux, Initial residual = 0.00687691, Final residual = 0.000645403, No Iterations 3
smoothSolver:  Solving for Uy, Initial residual = 0.0481692, Final residual = 0.00458734, No Iterations 3
GAMG:  Solving for p, Initial residual = 0.149388, Final residual = 0.029459, No Iterations 1
time step continuity errors : sum local = 2.78632, global = -0.153284, cumulative = 7.83605
smoothSolver:  Solving for omega, Initial residual = 5.4354e-05, Final residual = 1.74264e-06, No Iterations 1
smoothSolver:  Solving for k, Initial residual = 0.00781784, Final residual = 0.000401718, No Iterations 1
ExecutionTime = 1.64 s  ClockTime = 1 s

Time = 54

smoothSolver:  Solving for Ux, Initial residual = 0.0068688, Final residual = 0.000659699, No Iterations 3
smoothSolver:  Solving for Uy, Initial residual = 0.0488572, Final residual = 0.00460979, No Iterations 3
GAMG:  Solving for p, Initial residual = 0.148774, Final residual = 0.0281289, No Iterations 1
time step continuity errors : sum local = 2.70161, global = -0.202278, cumulative = 7.63377
smoothSolver:  Solving for omega, Initial residual = 5.321e-05, Final residual = 1.71669e-06, No Iterations 1
smoothSolver:  Solving for k, Initial residual = 0.00750456, Final residual = 0.000388067, No Iterations 1
ExecutionTime = 1.67 s  ClockTime = 1 s

Time = 55

smoothSolver:  Solving for Ux, Initial residual = 0.00685975, Final residual = 0.00065036, No Iterations 3
smoothSolver:  Solving for Uy, Initial residual = 0.0506929, Final residual = 0.00501119, No Iterations 3
GAMG:  Solving for p, Initial residual = 0.151955, Final residual = 0.0288333, No Iterations 1
time step continuity errors : sum local = 2.70757, global = -0.242352, cumulative = 7.39142
smoothSolver:  Solving for omega, Initial residual = 5.19196e-05, Final residual = 1.70658e-06, No Iterations 1
smoothSolver:  Solving for k, Initial residual = 0.00721104, Final residual = 0.000375053, No Iterations 1
ExecutionTime = 1.69 s  ClockTime = 1 s

Time = 56

smoothSolver:  Solving for Ux, Initial residual = 0.00687266, Final residual = 0.000673062, No Iterations 3
smoothSolver:  Solving for Uy, Initial residual = 0.0497959, Final residual = 0.00291512, No Iterations 4
GAMG:  Solving for p, Initial residual = 0.155055, Final residual = 0.0292173, No Iterations 1
time step continuity errors : sum local = 2.67173, global = -0.271363, cumulative = 7.12005
smoothSolver:  Solving for omega, Initial residual = 5.04353e-05, Final residual = 1.68296e-06, No Iterations 1
smoothSolver:  Solving for k, Initial residual = 0.00693547, Final residual = 0.000362825, No Iterations 1
ExecutionTime = 1.71 s  ClockTime = 1 s

Time = 57

smoothSolver:  Solving for Ux, Initial residual = 0.00683806, Final residual = 0.000407592, No Iterations 4
smoothSolver:  Solving for Uy, Initial residual = 0.0476054, Final residual = 0.00475723, No Iterations 3
GAMG:  Solving for p, Initial residual = 0.159857, Final residual = 0.0297941, No Iterations 1
time step continuity errors : sum local = 2.69117, global = -0.309603, cumulative = 6.81045
smoothSolver:  Solving for omega, Initial residual = 4.96881e-05, Final residual = 1.67105e-06, No Iterations 1
smoothSolver:  Solving for k, Initial residual = 0.00663692, Final residual = 0.000348226, No Iterations 1
ExecutionTime = 1.73 s  ClockTime = 2 s

Time = 58

smoothSolver:  Solving for Ux, Initial residual = 0.00667694, Final residual = 0.000645088, No Iterations 3
smoothSolver:  Solving for Uy, Initial residual = 0.0479159, Final residual = 0.00282005, No Iterations 4
GAMG:  Solving for p, Initial residual = 0.158696, Final residual = 0.0292881, No Iterations 1
time step continuity errors : sum local = 2.78978, global = -0.222422, cumulative = 6.58803
smoothSolver:  Solving for omega, Initial residual = 4.7985e-05, Final residual = 1.63355e-06, No Iterations 1
smoothSolver:  Solving for k, Initial residual = 0.00644097, Final residual = 0.000340688, No Iterations 1
ExecutionTime = 1.75 s  ClockTime = 2 s

Time = 59

smoothSolver:  Solving for Ux, Initial residual = 0.00673799, Final residual = 0.000647602, No Iterations 3
smoothSolver:  Solving for Uy, Initial residual = 0.0485696, Final residual = 0.00454288, No Iterations 3
GAMG:  Solving for p, Initial residual = 0.169834, Final residual = 0.0304743, No Iterations 1
time step continuity errors : sum local = 2.74233, global = -0.23067, cumulative = 6.35736
smoothSolver:  Solving for omega, Initial residual = 4.68968e-05, Final residual = 1.59878e-06, No Iterations 1
smoothSolver:  Solving for k, Initial residual = 0.00623117, Final residual = 0.000331831, No Iterations 1
ExecutionTime = 1.77 s  ClockTime = 2 s

Time = 60

smoothSolver:  Solving for Ux, Initial residual = 0.00672827, Final residual = 0.000643406, No Iterations 3
smoothSolver:  Solving for Uy, Initial residual = 0.0483117, Final residual = 0.00456328, No Iterations 3
GAMG:  Solving for p, Initial residual = 0.167904, Final residual = 0.0298193, No Iterations 1
time step continuity errors : sum local = 2.6025, global = -0.248205, cumulative = 6.10915
smoothSolver:  Solving for omega, Initial residual = 4.60715e-05, Final residual = 1.57053e-06, No Iterations 1
smoothSolver:  Solving for k, Initial residual = 0.00603333, Final residual = 0.000323154, No Iterations 1
ExecutionTime = 1.8 s  ClockTime = 2 s

Time = 61

smoothSolver:  Solving for Ux, Initial residual = 0.00679108, Final residual = 0.000663922, No Iterations 3
smoothSolver:  Solving for Uy, Initial residual = 0.0486914, Final residual = 0.00474709, No Iterations 3
GAMG:  Solving for p, Initial residual = 0.170865, Final residual = 0.0268884, No Iterations 1
time step continuity errors : sum local = 2.30817, global = -0.347049, cumulative = 5.76211
smoothSolver:  Solving for omega, Initial residual = 4.55555e-05, Final residual = 1.56521e-06, No Iterations 1
smoothSolver:  Solving for k, Initial residual = 0.00584889, Final residual = 0.000314853, No Iterations 1
ExecutionTime = 1.82 s  ClockTime = 2 s

Time = 62

smoothSolver:  Solving for Ux, Initial residual = 0.00666908, Final residual = 0.000391858, No Iterations 4
smoothSolver:  Solving for Uy, Initial residual = 0.0490389, Final residual = 0.00469416, No Iterations 3
GAMG:  Solving for p, Initial residual = 0.177233, Final residual = 0.0262516, No Iterations 1
time step continuity errors : sum local = 2.25093, global = -0.361355, cumulative = 5.40075
smoothSolver:  Solving for omega, Initial residual = 4.54714e-05, Final residual = 1.55812e-06, No Iterations 1
smoothSolver:  Solving for k, Initial residual = 0.00564272, Final residual = 0.000304229, No Iterations 1
ExecutionTime = 1.85 s  ClockTime = 2 s

Time = 63

smoothSolver:  Solving for Ux, Initial residual = 0.00639114, Final residual = 0.000632141, No Iterations 3
smoothSolver:  Solving for Uy, Initial residual = 0.0480495, Final residual = 0.00460768, No Iterations 3
GAMG:  Solving for p, Initial residual = 0.166104, Final residual = 0.0239386, No Iterations 1
time step continuity errors : sum local = 2.26995, global = -0.255008, cumulative = 5.14574
smoothSolver:  Solving for omega, Initial residual = 4.37169e-05, Final residual = 1.5265e-06, No Iterations 1
smoothSolver:  Solving for k, Initial residual = 0.0055178, Final residual = 0.000298891, No Iterations 1
ExecutionTime = 1.87 s  ClockTime = 2 s

Time = 64

smoothSolver:  Solving for Ux, Initial residual = 0.00655609, Final residual = 0.000625336, No Iterations 3
smoothSolver:  Solving for Uy, Initial residual = 0.0508521, Final residual = 0.00462527, No Iterations 3
GAMG:  Solving for p, Initial residual = 0.176141, Final residual = 0.0279409, No Iterations 1
time step continuity errors : sum local = 2.34564, global = -0.24747, cumulative = 4.89827
smoothSolver:  Solving for omega, Initial residual = 4.22466e-05, Final residual = 1.48536e-06, No Iterations 1
smoothSolver:  Solving for k, Initial residual = 0.00538432, Final residual = 0.00029217, No Iterations 1
ExecutionTime = 1.89 s  ClockTime = 2 s

Time = 65

smoothSolver:  Solving for Ux, Initial residual = 0.00625751, Final residual = 0.000595206, No Iterations 3
smoothSolver:  Solving for Uy, Initial residual = 0.0472177, Final residual = 0.0045983, No Iterations 3
GAMG:  Solving for p, Initial residual = 0.177683, Final residual = 0.0274713, No Iterations 1
time step continuity errors : sum local = 2.33782, global = -0.242452, cumulative = 4.65582
smoothSolver:  Solving for omega, Initial residual = 4.09425e-05, Final residual = 1.46123e-06, No Iterations 1
smoothSolver:  Solving for k, Initial residual = 0.00525664, Final residual = 0.000285807, No Iterations 1
ExecutionTime = 1.91 s  ClockTime = 2 s

Time = 66

smoothSolver:  Solving for Ux, Initial residual = 0.00596682, Final residual = 0.000596215, No Iterations 3
smoothSolver:  Solving for Uy, Initial residual = 0.0452112, Final residual = 0.00270739, No Iterations 4
GAMG:  Solving for p, Initial residual = 0.187371, Final residual = 0.0292931, No Iterations 1
time step continuity errors : sum local = 2.41478, global = -0.312666, cumulative = 4.34315
smoothSolver:  Solving for omega, Initial residual = 3.97307e-05, Final residual = 1.41831e-06, No Iterations 1
smoothSolver:  Solving for k, Initial residual = 0.00512623, Final residual = 0.00027934, No Iterations 1
ExecutionTime = 1.93 s  ClockTime = 2 s

Time = 67

smoothSolver:  Solving for Ux, Initial residual = 0.00578385, Final residual = 0.000338907, No Iterations 4
smoothSolver:  Solving for Uy, Initial residual = 0.0430758, Final residual = 0.00266498, No Iterations 4
GAMG:  Solving for p, Initial residual = 0.191969, Final residual = 0.0315861, No Iterations 1
time step continuity errors : sum local = 2.58954, global = -0.301021, cumulative = 4.04213
smoothSolver:  Solving for omega, Initial residual = 3.99057e-05, Final residual = 1.4192e-06, No Iterations 1
smoothSolver:  Solving for k, Initial residual = 0.00498696, Final residual = 0.000272116, No Iterations 1
ExecutionTime = 1.95 s  ClockTime = 2 s

Time = 68

smoothSolver:  Solving for Ux, Initial residual = 0.00571135, Final residual = 0.000341336, No Iterations 4
smoothSolver:  Solving for Uy, Initial residual = 0.0412975, Final residual = 0.00254312, No Iterations 4
GAMG:  Solving for p, Initial residual = 0.193358, Final residual = 0.0338356, No Iterations 1
time step continuity errors : sum local = 2.68797, global = -0.276016, cumulative = 3.76612
smoothSolver:  Solving for omega, Initial residual = 3.96593e-05, Final residual = 1.39978e-06, No Iterations 1
smoothSolver:  Solving for k, Initial residual = 0.00487127, Final residual = 0.000266822, No Iterations 1
ExecutionTime = 1.98 s  ClockTime = 2 s

Time = 69

smoothSolver:  Solving for Ux, Initial residual = 0.00549299, Final residual = 0.000365605, No Iterations 4
smoothSolver:  Solving for Uy, Initial residual = 0.0380295, Final residual = 0.00245548, No Iterations 4
GAMG:  Solving for p, Initial residual = 0.19055, Final residual = 0.0318808, No Iterations 1
time step continuity errors : sum local = 2.71562, global = -0.22747, cumulative = 3.53865
smoothSolver:  Solving for omega, Initial residual = 3.88297e-05, Final residual = 1.38495e-06, No Iterations 1
smoothSolver:  Solving for k, Initial residual = 0.00477822, Final residual = 0.000263419, No Iterations 1
ExecutionTime = 2.02 s  ClockTime = 2 s

Time = 70

smoothSolver:  Solving for Ux, Initial residual = 0.00546602, Final residual = 0.000387139, No Iterations 4
smoothSolver:  Solving for Uy, Initial residual = 0.0361499, Final residual = 0.00230019, No Iterations 4
GAMG:  Solving for p, Initial residual = 0.184064, Final residual = 0.0323121, No Iterations 1
time step continuity errors : sum local = 2.70098, global = -0.195611, cumulative = 3.34304
smoothSolver:  Solving for omega, Initial residual = 3.8186e-05, Final residual = 1.36685e-06, No Iterations 1
smoothSolver:  Solving for k, Initial residual = 0.00469845, Final residual = 0.000260926, No Iterations 1
ExecutionTime = 2.05 s  ClockTime = 2 s

Time = 71

smoothSolver:  Solving for Ux, Initial residual = 0.00535917, Final residual = 0.000392378, No Iterations 4
smoothSolver:  Solving for Uy, Initial residual = 0.0348251, Final residual = 0.00214841, No Iterations 4
GAMG:  Solving for p, Initial residual = 0.178961, Final residual = 0.0335392, No Iterations 1
time step continuity errors : sum local = 2.70121, global = -0.166456, cumulative = 3.17658
smoothSolver:  Solving for omega, Initial residual = 3.7514e-05, Final residual = 1.34329e-06, No Iterations 1
smoothSolver:  Solving for k, Initial residual = 0.00458885, Final residual = 0.000257472, No Iterations 1
ExecutionTime = 2.07 s  ClockTime = 2 s

Time = 72

smoothSolver:  Solving for Ux, Initial residual = 0.00540803, Final residual = 0.000397258, No Iterations 4
smoothSolver:  Solving for Uy, Initial residual = 0.0355807, Final residual = 0.00222498, No Iterations 4
GAMG:  Solving for p, Initial residual = 0.170729, Final residual = 0.0336492, No Iterations 1
time step continuity errors : sum local = 2.82818, global = -0.15263, cumulative = 3.02395
smoothSolver:  Solving for omega, Initial residual = 3.73897e-05, Final residual = 1.35212e-06, No Iterations 1
smoothSolver:  Solving for k, Initial residual = 0.00448921, Final residual = 0.000253784, No Iterations 1
ExecutionTime = 2.09 s  ClockTime = 2 s

Time = 73

smoothSolver:  Solving for Ux, Initial residual = 0.00560192, Final residual = 0.000409775, No Iterations 4
smoothSolver:  Solving for Uy, Initial residual = 0.0388326, Final residual = 0.00241803, No Iterations 4
GAMG:  Solving for p, Initial residual = 0.172132, Final residual = 0.034264, No Iterations 1
time step continuity errors : sum local = 2.95748, global = -0.140653, cumulative = 2.8833
smoothSolver:  Solving for omega, Initial residual = 3.76942e-05, Final residual = 1.36824e-06, No Iterations 1
smoothSolver:  Solving for k, Initial residual = 0.00439307, Final residual = 0.000250008, No Iterations 1
ExecutionTime = 2.11 s  ClockTime = 2 s

Time = 74

smoothSolver:  Solving for Ux, Initial residual = 0.00593254, Final residual = 0.00042489, No Iterations 4
smoothSolver:  Solving for Uy, Initial residual = 0.0436289, Final residual = 0.00261209, No Iterations 4
GAMG:  Solving for p, Initial residual = 0.17679, Final residual = 0.0325775, No Iterations 1
time step continuity errors : sum local = 2.91977, global = -0.13067, cumulative = 2.75263
smoothSolver:  Solving for omega, Initial residual = 3.80073e-05, Final residual = 1.37695e-06, No Iterations 1
smoothSolver:  Solving for k, Initial residual = 0.00430226, Final residual = 0.00024609, No Iterations 1
ExecutionTime = 2.14 s  ClockTime = 2 s

Time = 75

smoothSolver:  Solving for Ux, Initial residual = 0.00619091, Final residual = 0.000445822, No Iterations 4
smoothSolver:  Solving for Uy, Initial residual = 0.0477198, Final residual = 0.00280923, No Iterations 4
GAMG:  Solving for p, Initial residual = 0.185483, Final residual = 0.0342717, No Iterations 1
time step continuity errors : sum local = 2.90997, global = -0.118783, cumulative = 2.63384
smoothSolver:  Solving for omega, Initial residual = 3.88891e-05, Final residual = 1.40588e-06, No Iterations 1
smoothSolver:  Solving for k, Initial residual = 0.00422027, Final residual = 0.000242511, No Iterations 1
ExecutionTime = 2.16 s  ClockTime = 2 s

Time = 76

smoothSolver:  Solving for Ux, Initial residual = 0.00652988, Final residual = 0.000476319, No Iterations 4
smoothSolver:  Solving for Uy, Initial residual = 0.0521852, Final residual = 0.00304948, No Iterations 4
GAMG:  Solving for p, Initial residual = 0.180665, Final residual = 0.0350691, No Iterations 1
time step continuity errors : sum local = 2.92339, global = -0.102602, cumulative = 2.53124
smoothSolver:  Solving for omega, Initial residual = 3.82917e-05, Final residual = 1.39041e-06, No Iterations 1
smoothSolver:  Solving for k, Initial residual = 0.00413384, Final residual = 0.000238396, No Iterations 1
ExecutionTime = 2.18 s  ClockTime = 2 s

Time = 77

smoothSolver:  Solving for Ux, Initial residual = 0.00686162, Final residual = 0.000511524, No Iterations 4
smoothSolver:  Solving for Uy, Initial residual = 0.0565007, Final residual = 0.00340792, No Iterations 4
GAMG:  Solving for p, Initial residual = 0.174616, Final residual = 0.015159, No Iterations 2
time step continuity errors : sum local = 1.2529, global = -0.0909994, cumulative = 2.44024
smoothSolver:  Solving for omega, Initial residual = 3.72853e-05, Final residual = 1.34153e-06, No Iterations 1
smoothSolver:  Solving for k, Initial residual = 0.0040739, Final residual = 0.000235671, No Iterations 1
ExecutionTime = 2.2 s  ClockTime = 2 s

Time = 78

smoothSolver:  Solving for Ux, Initial residual = 0.00783459, Final residual = 0.000491462, No Iterations 4
smoothSolver:  Solving for Uy, Initial residual = 0.0681486, Final residual = 0.00406725, No Iterations 4
GAMG:  Solving for p, Initial residual = 0.184459, Final residual = 0.0323747, No Iterations 1
time step continuity errors : sum local = 2.62099, global = -0.0537711, cumulative = 2.38647
smoothSolver:  Solving for omega, Initial residual = 3.55387e-05, Final residual = 1.32343e-06, No Iterations 1
smoothSolver:  Solving for k, Initial residual = 0.0040226, Final residual = 0.000232492, No Iterations 1
ExecutionTime = 2.23 s  ClockTime = 2 s

Time = 79

smoothSolver:  Solving for Ux, Initial residual = 0.00797301, Final residual = 0.00061627, No Iterations 4
smoothSolver:  Solving for Uy, Initial residual = 0.071016, Final residual = 0.00453373, No Iterations 4
GAMG:  Solving for p, Initial residual = 0.181546, Final residual = 0.0331268, No Iterations 1
time step continuity errors : sum local = 2.9856, global = -0.0309856, cumulative = 2.35549
smoothSolver:  Solving for omega, Initial residual = 3.47965e-05, Final residual = 1.32939e-06, No Iterations 1
smoothSolver:  Solving for k, Initial residual = 0.0039521, Final residual = 0.000228467, No Iterations 1
ExecutionTime = 2.25 s  ClockTime = 2 s

Time = 80

smoothSolver:  Solving for Ux, Initial residual = 0.00848039, Final residual = 0.000639029, No Iterations 4
smoothSolver:  Solving for Uy, Initial residual = 0.0784339, Final residual = 0.00457492, No Iterations 4
GAMG:  Solving for p, Initial residual = 0.201166, Final residual = 0.0144381, No Iterations 2
time step continuity errors : sum local = 1.10326, global = 0.00658195, cumulative = 2.36207
smoothSolver:  Solving for omega, Initial residual = 3.38966e-05, Final residual = 1.30328e-06, No Iterations 1
smoothSolver:  Solving for k, Initial residual = 0.00393139, Final residual = 0.000227693, No Iterations 1
ExecutionTime = 2.27 s  ClockTime = 2 s

Time = 81

smoothSolver:  Solving for Ux, Initial residual = 0.00888131, Final residual = 0.000588165, No Iterations 4
smoothSolver:  Solving for Uy, Initial residual = 0.0854973, Final residual = 0.00847237, No Iterations 3
GAMG:  Solving for p, Initial residual = 0.187488, Final residual = 0.0373521, No Iterations 1
time step continuity errors : sum local = 2.9348, global = 0.0182959, cumulative = 2.38036
smoothSolver:  Solving for omega, Initial residual = 3.27846e-05, Final residual = 1.27235e-06, No Iterations 1
smoothSolver:  Solving for k, Initial residual = 0.00389788, Final residual = 0.000225936, No Iterations 1
ExecutionTime = 2.3 s  ClockTime = 2 s

Time = 82

smoothSolver:  Solving for Ux, Initial residual = 0.00909576, Final residual = 0.000686982, No Iterations 4
smoothSolver:  Solving for Uy, Initial residual = 0.0944861, Final residual = 0.00583147, No Iterations 4
GAMG:  Solving for p, Initial residual = 0.201817, Final residual = 0.0394724, No Iterations 1
time step continuity errors : sum local = 3.14412, global = 0.037861, cumulative = 2.41823
smoothSolver:  Solving for omega, Initial residual = 3.23599e-05, Final residual = 1.26493e-06, No Iterations 1
smoothSolver:  Solving for k, Initial residual = 0.0038647, Final residual = 0.000224194, No Iterations 1
ExecutionTime = 2.32 s  ClockTime = 2 s

Time = 83

smoothSolver:  Solving for Ux, Initial residual = 0.00925411, Final residual = 0.000661577, No Iterations 4
smoothSolver:  Solving for Uy, Initial residual = 0.101882, Final residual = 0.00630507, No Iterations 4
GAMG:  Solving for p, Initial residual = 0.211079, Final residual = 0.0416119, No Iterations 1
time step continuity errors : sum local = 3.29662, global = 0.0585816, cumulative = 2.47681
smoothSolver:  Solving for omega, Initial residual = 3.18046e-05, Final residual = 1.23747e-06, No Iterations 1
smoothSolver:  Solving for k, Initial residual = 0.00384001, Final residual = 0.000222333, No Iterations 1
ExecutionTime = 2.34 s  ClockTime = 2 s

Time = 84

smoothSolver:  Solving for Ux, Initial residual = 0.00932385, Final residual = 0.000632474, No Iterations 4
smoothSolver:  Solving for Uy, Initial residual = 0.110893, Final residual = 0.00699952, No Iterations 4
GAMG:  Solving for p, Initial residual = 0.208892, Final residual = 0.0387812, No Iterations 1
time step continuity errors : sum local = 3.24237, global = 0.087351, cumulative = 2.56416
smoothSolver:  Solving for omega, Initial residual = 3.15889e-05, Final residual = 1.22824e-06, No Iterations 1
smoothSolver:  Solving for k, Initial residual = 0.00382328, Final residual = 0.000220625, No Iterations 1
ExecutionTime = 2.37 s  ClockTime = 2 s

Time = 85

smoothSolver:  Solving for Ux, Initial residual = 0.00955385, Final residual = 0.000622683, No Iterations 4
smoothSolver:  Solving for Uy, Initial residual = 0.118617, Final residual = 0.00779996, No Iterations 4
GAMG:  Solving for p, Initial residual = 0.213384, Final residual = 0.0414646, No Iterations 1
time step continuity errors : sum local = 3.32059, global = 0.114647, cumulative = 2.6788
smoothSolver:  Solving for omega, Initial residual = 3.14215e-05, Final residual = 1.24002e-06, No Iterations 1
smoothSolver:  Solving for k, Initial residual = 0.00380051, Final residual = 0.000218409, No Iterations 1
ExecutionTime = 2.39 s  ClockTime = 2 s

Time = 86

smoothSolver:  Solving for Ux, Initial residual = 0.00992816, Final residual = 0.000626574, No Iterations 4
smoothSolver:  Solving for Uy, Initial residual = 0.127887, Final residual = 0.00876226, No Iterations 4
GAMG:  Solving for p, Initial residual = 0.219281, Final residual = 0.0180779, No Iterations 2
time step continuity errors : sum local = 1.33162, global = 0.131216, cumulative = 2.81002
smoothSolver:  Solving for omega, Initial residual = 3.13541e-05, Final residual = 1.25289e-06, No Iterations 1
smoothSolver:  Solving for k, Initial residual = 0.00377663, Final residual = 0.000215302, No Iterations 1
ExecutionTime = 2.42 s  ClockTime = 2 s

Time = 87

smoothSolver:  Solving for Ux, Initial residual = 0.0106472, Final residual = 0.000665786, No Iterations 4
smoothSolver:  Solving for Uy, Initial residual = 0.133681, Final residual = 0.00944224, No Iterations 4
GAMG:  Solving for p, Initial residual = 0.22585, Final residual = 0.0423007, No Iterations 1
time step continuity errors : sum local = 2.88029, global = 0.115193, cumulative = 2.92521
smoothSolver:  Solving for omega, Initial residual = 3.05109e-05, Final residual = 1.24229e-06, No Iterations 1
smoothSolver:  Solving for k, Initial residual = 0.00374648, Final residual = 0.00021393, No Iterations 1
ExecutionTime = 2.44 s  ClockTime = 2 s

Time = 88

smoothSolver:  Solving for Ux, Initial residual = 0.0104052, Final residual = 0.000730059, No Iterations 4
smoothSolver:  Solving for Uy, Initial residual = 0.12352, Final residual = 0.00951226, No Iterations 4
GAMG:  Solving for p, Initial residual = 0.230413, Final residual = 0.0437169, No Iterations 1
time step continuity errors : sum local = 3.05738, global = 0.135293, cumulative = 3.06051
smoothSolver:  Solving for omega, Initial residual = 2.99207e-05, Final residual = 1.21437e-06, No Iterations 1
smoothSolver:  Solving for k, Initial residual = 0.00376258, Final residual = 0.000214531, No Iterations 1
ExecutionTime = 2.47 s  ClockTime = 2 s

Time = 89

smoothSolver:  Solving for Ux, Initial residual = 0.0100873, Final residual = 0.000743766, No Iterations 4
smoothSolver:  Solving for Uy, Initial residual = 0.107004, Final residual = 0.00840416, No Iterations 4
GAMG:  Solving for p, Initial residual = 0.231392, Final residual = 0.0433784, No Iterations 1
time step continuity errors : sum local = 3.1033, global = 0.13058, cumulative = 3.19109
smoothSolver:  Solving for omega, Initial residual = 2.93035e-05, Final residual = 1.1876e-06, No Iterations 1
smoothSolver:  Solving for k, Initial residual = 0.00377494, Final residual = 0.000215963, No Iterations 1
ExecutionTime = 2.49 s  ClockTime = 2 s

Time = 90

smoothSolver:  Solving for Ux, Initial residual = 0.0095054, Final residual = 0.000711544, No Iterations 4
smoothSolver:  Solving for Uy, Initial residual = 0.0888634, Final residual = 0.00668357, No Iterations 4
GAMG:  Solving for p, Initial residual = 0.229449, Final residual = 0.0391108, No Iterations 1
time step continuity errors : sum local = 2.84357, global = 0.106708, cumulative = 3.29779
smoothSolver:  Solving for omega, Initial residual = 2.87314e-05, Final residual = 1.17027e-06, No Iterations 1
smoothSolver:  Solving for k, Initial residual = 0.00378397, Final residual = 0.000219383, No Iterations 1
ExecutionTime = 2.53 s  ClockTime = 2 s

Time = 91

smoothSolver:  Solving for Ux, Initial residual = 0.00871069, Final residual = 0.00066456, No Iterations 4
smoothSolver:  Solving for Uy, Initial residual = 0.076027, Final residual = 0.00527323, No Iterations 4
GAMG:  Solving for p, Initial residual = 0.221291, Final residual = 0.0347005, No Iterations 1
time step continuity errors : sum local = 2.50033, global = 0.0638429, cumulative = 3.36164
smoothSolver:  Solving for omega, Initial residual = 2.86331e-05, Final residual = 1.18227e-06, No Iterations 1
smoothSolver:  Solving for k, Initial residual = 0.00379992, Final residual = 0.000224621, No Iterations 1
ExecutionTime = 2.56 s  ClockTime = 2 s

Time = 92

smoothSolver:  Solving for Ux, Initial residual = 0.00799623, Final residual = 0.00062412, No Iterations 4
smoothSolver:  Solving for Uy, Initial residual = 0.0656268, Final residual = 0.00456628, No Iterations 4
GAMG:  Solving for p, Initial residual = 0.208857, Final residual = 0.0328718, No Iterations 1
time step continuity errors : sum local = 2.30132, global = 0.0283291, cumulative = 3.38997
smoothSolver:  Solving for omega, Initial residual = 2.88134e-05, Final residual = 1.20267e-06, No Iterations 1
smoothSolver:  Solving for k, Initial residual = 0.00380264, Final residual = 0.000229274, No Iterations 1
ExecutionTime = 2.58 s  ClockTime = 2 s

Time = 93

smoothSolver:  Solving for Ux, Initial residual = 0.00734588, Final residual = 0.000607383, No Iterations 4
smoothSolver:  Solving for Uy, Initial residual = 0.0584325, Final residual = 0.00446355, No Iterations 4
GAMG:  Solving for p, Initial residual = 0.212463, Final residual = 0.0337076, No Iterations 1
time step continuity errors : sum local = 2.29983, global = 0.038216, cumulative = 3.42818
smoothSolver:  Solving for omega, Initial residual = 2.81219e-05, Final residual = 1.18242e-06, No Iterations 1
smoothSolver:  Solving for k, Initial residual = 0.00376856, Final residual = 0.000230682, No Iterations 1
ExecutionTime = 2.6 s  ClockTime = 2 s

Time = 94

smoothSolver:  Solving for Ux, Initial residual = 0.00677874, Final residual = 0.000569161, No Iterations 4
smoothSolver:  Solving for Uy, Initial residual = 0.0580338, Final residual = 0.00467875, No Iterations 4
GAMG:  Solving for p, Initial residual = 0.222731, Final residual = 0.036611, No Iterations 1
time step continuity errors : sum local = 2.47103, global = 0.0828043, cumulative = 3.51099
smoothSolver:  Solving for omega, Initial residual = 2.7457e-05, Final residual = 1.15448e-06, No Iterations 1
smoothSolver:  Solving for k, Initial residual = 0.00370624, Final residual = 0.000229523, No Iterations 1
ExecutionTime = 2.63 s  ClockTime = 2 s

Time = 95

smoothSolver:  Solving for Ux, Initial residual = 0.00634429, Final residual = 0.000546409, No Iterations 4
smoothSolver:  Solving for Uy, Initial residual = 0.0604873, Final residual = 0.00496894, No Iterations 4
GAMG:  Solving for p, Initial residual = 0.219364, Final residual = 0.0353149, No Iterations 1
time step continuity errors : sum local = 2.38783, global = 0.10963, cumulative = 3.62062
smoothSolver:  Solving for omega, Initial residual = 2.66203e-05, Final residual = 1.115e-06, No Iterations 1
smoothSolver:  Solving for k, Initial residual = 0.00361319, Final residual = 0.000225624, No Iterations 1
ExecutionTime = 2.65 s  ClockTime = 2 s

Time = 96

smoothSolver:  Solving for Ux, Initial residual = 0.00607204, Final residual = 0.000524643, No Iterations 4
smoothSolver:  Solving for Uy, Initial residual = 0.0631707, Final residual = 0.00526521, No Iterations 4
GAMG:  Solving for p, Initial residual = 0.207149, Final residual = 0.0335131, No Iterations 1
time step continuity errors : sum local = 2.24476, global = 0.119127, cumulative = 3.73974
smoothSolver:  Solving for omega, Initial residual = 2.5962e-05, Final residual = 1.08703e-06, No Iterations 1
smoothSolver:  Solving for k, Initial residual = 0.00350219, Final residual = 0.000220029, No Iterations 1
ExecutionTime = 2.67 s  ClockTime = 2 s

Time = 97

smoothSolver:  Solving for Ux, Initial residual = 0.00593126, Final residual = 0.000506098, No Iterations 4
smoothSolver:  Solving for Uy, Initial residual = 0.0659321, Final residual = 0.00533277, No Iterations 4
GAMG:  Solving for p, Initial residual = 0.188782, Final residual = 0.0305887, No Iterations 1
time step continuity errors : sum local = 2.15592, global = 0.120483, cumulative = 3.86023
smoothSolver:  Solving for omega, Initial residual = 2.5231e-05, Final residual = 1.05128e-06, No Iterations 1
smoothSolver:  Solving for k, Initial residual = 0.00338952, Final residual = 0.000212871, No Iterations 1
ExecutionTime = 2.69 s  ClockTime = 2 s

Time = 98

smoothSolver:  Solving for Ux, Initial residual = 0.00602173, Final residual = 0.000479058, No Iterations 4
smoothSolver:  Solving for Uy, Initial residual = 0.0676931, Final residual = 0.00526261, No Iterations 4
GAMG:  Solving for p, Initial residual = 0.184662, Final residual = 0.0303344, No Iterations 1
time step continuity errors : sum local = 2.19372, global = 0.103586, cumulative = 3.96381
smoothSolver:  Solving for omega, Initial residual = 2.51713e-05, Final residual = 1.02574e-06, No Iterations 1
smoothSolver:  Solving for k, Initial residual = 0.00327568, Final residual = 0.00020535, No Iterations 1
ExecutionTime = 2.72 s  ClockTime = 2 s

Time = 99

smoothSolver:  Solving for Ux, Initial residual = 0.00618062, Final residual = 0.000457045, No Iterations 4
smoothSolver:  Solving for Uy, Initial residual = 0.068709, Final residual = 0.00516289, No Iterations 4
GAMG:  Solving for p, Initial residual = 0.175243, Final residual = 0.0306159, No Iterations 1
time step continuity errors : sum local = 2.34615, global = 0.0387862, cumulative = 4.0026
smoothSolver:  Solving for omega, Initial residual = 2.44009e-05, Final residual = 9.87396e-07, No Iterations 1
smoothSolver:  Solving for k, Initial residual = 0.00316743, Final residual = 0.000197926, No Iterations 1
ExecutionTime = 2.74 s  ClockTime = 3 s

Time = 100

smoothSolver:  Solving for Ux, Initial residual = 0.00631644, Final residual = 0.000434967, No Iterations 4
smoothSolver:  Solving for Uy, Initial residual = 0.0697711, Final residual = 0.00493486, No Iterations 4
GAMG:  Solving for p, Initial residual = 0.1685, Final residual = 0.0301086, No Iterations 1
time step continuity errors : sum local = 2.23028, global = 0.0917442, cumulative = 4.09434
smoothSolver:  Solving for omega, Initial residual = 2.36465e-05, Final residual = 9.61487e-07, No Iterations 1
smoothSolver:  Solving for k, Initial residual = 0.0030762, Final residual = 0.000191702, No Iterations 1
ExecutionTime = 2.76 s  ClockTime = 3 s

Time = 101

smoothSolver:  Solving for Ux, Initial residual = 0.00634692, Final residual = 0.000420942, No Iterations 4
smoothSolver:  Solving for Uy, Initial residual = 0.0699665, Final residual = 0.00473373, No Iterations 4
GAMG:  Solving for p, Initial residual = 0.162548, Final residual = 0.026279, No Iterations 1
time step continuity errors : sum local = 2.03002, global = 0.0875702, cumulative = 4.18191
smoothSolver:  Solving for omega, Initial residual = 2.29491e-05, Final residual = 9.41467e-07, No Iterations 1
smoothSolver:  Solving for k, Initial residual = 0.00299838, Final residual = 0.00018643, No Iterations 1
ExecutionTime = 2.78 s  ClockTime = 3 s

Time = 102

smoothSolver:  Solving for Ux, Initial residual = 0.0063636, Final residual = 0.000423948, No Iterations 4
smoothSolver:  Solving for Uy, Initial residual = 0.0695743, Final residual = 0.00448893, No Iterations 4
GAMG:  Solving for p, Initial residual = 0.166857, Final residual = 0.0273986, No Iterations 1
time step continuity errors : sum local = 1.94629, global = 0.0753963, cumulative = 4.25731
smoothSolver:  Solving for omega, Initial residual = 2.22106e-05, Final residual = 9.16095e-07, No Iterations 1
smoothSolver:  Solving for k, Initial residual = 0.0029331, Final residual = 0.000181968, No Iterations 1
ExecutionTime = 2.81 s  ClockTime = 3 s

Time = 103

smoothSolver:  Solving for Ux, Initial residual = 0.00637174, Final residual = 0.000420226, No Iterations 4
smoothSolver:  Solving for Uy, Initial residual = 0.0688223, Final residual = 0.00428668, No Iterations 4
GAMG:  Solving for p, Initial residual = 0.166249, Final residual = 0.0259959, No Iterations 1
time step continuity errors : sum local = 1.79265, global = 0.072906, cumulative = 4.33022
smoothSolver:  Solving for omega, Initial residual = 2.18446e-05, Final residual = 9.03936e-07, No Iterations 1
smoothSolver:  Solving for k, Initial residual = 0.00287984, Final residual = 0.000178451, No Iterations 1
ExecutionTime = 2.83 s  ClockTime = 3 s

Time = 104

smoothSolver:  Solving for Ux, Initial residual = 0.00623307, Final residual = 0.000415395, No Iterations 4
smoothSolver:  Solving for Uy, Initial residual = 0.0681482, Final residual = 0.00426185, No Iterations 4
GAMG:  Solving for p, Initial residual = 0.167518, Final residual = 0.026199, No Iterations 1
time step continuity errors : sum local = 1.78691, global = 0.0849393, cumulative = 4.41516
smoothSolver:  Solving for omega, Initial residual = 2.1202e-05, Final residual = 8.86277e-07, No Iterations 1
smoothSolver:  Solving for k, Initial residual = 0.00283125, Final residual = 0.000175254, No Iterations 1
ExecutionTime = 2.85 s  ClockTime = 3 s

Time = 105

smoothSolver:  Solving for Ux, Initial residual = 0.00619279, Final residual = 0.000412948, No Iterations 4
smoothSolver:  Solving for Uy, Initial residual = 0.0677709, Final residual = 0.00437864, No Iterations 4
GAMG:  Solving for p, Initial residual = 0.165192, Final residual = 0.0284688, No Iterations 1
time step continuity errors : sum local = 1.90945, global = 0.0905738, cumulative = 4.50573
smoothSolver:  Solving for omega, Initial residual = 2.09097e-05, Final residual = 8.86732e-07, No Iterations 1
smoothSolver:  Solving for k, Initial residual = 0.00278765, Final residual = 0.000172226, No Iterations 1
ExecutionTime = 2.88 s  ClockTime = 3 s

Time = 106

smoothSolver:  Solving for Ux, Initial residual = 0.00617929, Final residual = 0.000412161, No Iterations 4
smoothSolver:  Solving for Uy, Initial residual = 0.0688489, Final residual = 0.00467064, No Iterations 4
GAMG:  Solving for p, Initial residual = 0.16335, Final residual = 0.0305806, No Iterations 1
time step continuity errors : sum local = 2.08722, global = 0.0237662, cumulative = 4.5295
smoothSolver:  Solving for omega, Initial residual = 2.06073e-05, Final residual = 8.88357e-07, No Iterations 1
smoothSolver:  Solving for k, Initial residual = 0.00274266, Final residual = 0.000169211, No Iterations 1
ExecutionTime = 2.9 s  ClockTime = 3 s

Time = 107

smoothSolver:  Solving for Ux, Initial residual = 0.00612107, Final residual = 0.000415891, No Iterations 4
smoothSolver:  Solving for Uy, Initial residual = 0.0692633, Final residual = 0.0050722, No Iterations 4
GAMG:  Solving for p, Initial residual = 0.167442, Final residual = 0.028191, No Iterations 1
time step continuity errors : sum local = 1.88519, global = 0.0504814, cumulative = 4.57998
smoothSolver:  Solving for omega, Initial residual = 2.04005e-05, Final residual = 8.89477e-07, No Iterations 1
smoothSolver:  Solving for k, Initial residual = 0.00270538, Final residual = 0.000166679, No Iterations 1
ExecutionTime = 2.96 s  ClockTime = 3 s

Time = 108

smoothSolver:  Solving for Ux, Initial residual = 0.00611649, Final residual = 0.000434843, No Iterations 4
smoothSolver:  Solving for Uy, Initial residual = 0.0685613, Final residual = 0.00541617, No Iterations 4
GAMG:  Solving for p, Initial residual = 0.178492, Final residual = 0.0274448, No Iterations 1
time step continuity errors : sum local = 1.79884, global = 0.0171658, cumulative = 4.59714
smoothSolver:  Solving for omega, Initial residual = 2.02409e-05, Final residual = 8.88388e-07, No Iterations 1
smoothSolver:  Solving for k, Initial residual = 0.00266778, Final residual = 0.000164007, No Iterations 1
ExecutionTime = 3 s  ClockTime = 3 s

Time = 109

smoothSolver:  Solving for Ux, Initial residual = 0.00593888, Final residual = 0.000446911, No Iterations 4
smoothSolver:  Solving for Uy, Initial residual = 0.0659095, Final residual = 0.00549444, No Iterations 4
GAMG:  Solving for p, Initial residual = 0.182089, Final residual = 0.0266689, No Iterations 1
time step continuity errors : sum local = 1.75727, global = 0.0027795, cumulative = 4.59992
smoothSolver:  Solving for omega, Initial residual = 2.00206e-05, Final residual = 8.84831e-07, No Iterations 1
smoothSolver:  Solving for k, Initial residual = 0.00262892, Final residual = 0.00016143, No Iterations 1
ExecutionTime = 3.13 s  ClockTime = 3 s

Time = 110

smoothSolver:  Solving for Ux, Initial residual = 0.00560801, Final residual = 0.000429659, No Iterations 4
smoothSolver:  Solving for Uy, Initial residual = 0.0606314, Final residual = 0.00505442, No Iterations 4
GAMG:  Solving for p, Initial residual = 0.178706, Final residual = 0.0247942, No Iterations 1
time step continuity errors : sum local = 1.65419, global = -0.0244195, cumulative = 4.5755
smoothSolver:  Solving for omega, Initial residual = 1.99089e-05, Final residual = 8.82862e-07, No Iterations 1
smoothSolver:  Solving for k, Initial residual = 0.00259561, Final residual = 0.000158984, No Iterations 1
ExecutionTime = 3.18 s  ClockTime = 3 s

Time = 111

smoothSolver:  Solving for Ux, Initial residual = 0.0052032, Final residual = 0.000410513, No Iterations 4
smoothSolver:  Solving for Uy, Initial residual = 0.0533161, Final residual = 0.00437591, No Iterations 4
GAMG:  Solving for p, Initial residual = 0.166243, Final residual = 0.0229356, No Iterations 1
time step continuity errors : sum local = 1.52103, global = -0.0684866, cumulative = 4.50702
smoothSolver:  Solving for omega, Initial residual = 1.96165e-05, Final residual = 8.73292e-07, No Iterations 1
smoothSolver:  Solving for k, Initial residual = 0.00256981, Final residual = 0.000157168, No Iterations 1
ExecutionTime = 3.21 s  ClockTime = 3 s

Time = 112

smoothSolver:  Solving for Ux, Initial residual = 0.0047461, Final residual = 0.000391946, No Iterations 4
smoothSolver:  Solving for Uy, Initial residual = 0.0468272, Final residual = 0.00387106, No Iterations 4
GAMG:  Solving for p, Initial residual = 0.152653, Final residual = 0.0204278, No Iterations 1
time step continuity errors : sum local = 1.42754, global = -0.12075, cumulative = 4.38627
smoothSolver:  Solving for omega, Initial residual = 1.95012e-05, Final residual = 8.59655e-07, No Iterations 1
smoothSolver:  Solving for k, Initial residual = 0.00254191, Final residual = 0.000154854, No Iterations 1
ExecutionTime = 3.26 s  ClockTime = 3 s

Time = 113

smoothSolver:  Solving for Ux, Initial residual = 0.0043905, Final residual = 0.000372231, No Iterations 4
smoothSolver:  Solving for Uy, Initial residual = 0.0422261, Final residual = 0.00343284, No Iterations 4
GAMG:  Solving for p, Initial residual = 0.162183, Final residual = 0.0209117, No Iterations 1
time step continuity errors : sum local = 1.41153, global = -0.167824, cumulative = 4.21844
smoothSolver:  Solving for omega, Initial residual = 1.92831e-05, Final residual = 8.45437e-07, No Iterations 1
smoothSolver:  Solving for k, Initial residual = 0.00250155, Final residual = 0.000151746, No Iterations 1
ExecutionTime = 3.3 s  ClockTime = 3 s

Time = 114

smoothSolver:  Solving for Ux, Initial residual = 0.00410338, Final residual = 0.000354629, No Iterations 4
smoothSolver:  Solving for Uy, Initial residual = 0.0388804, Final residual = 0.00309046, No Iterations 4
GAMG:  Solving for p, Initial residual = 0.173778, Final residual = 0.0223422, No Iterations 1
time step continuity errors : sum local = 1.42513, global = -0.149479, cumulative = 4.06896
smoothSolver:  Solving for omega, Initial residual = 1.89823e-05, Final residual = 8.25574e-07, No Iterations 1
smoothSolver:  Solving for k, Initial residual = 0.00245416, Final residual = 0.000147728, No Iterations 1
ExecutionTime = 3.34 s  ClockTime = 3 s

Time = 115

smoothSolver:  Solving for Ux, Initial residual = 0.00389159, Final residual = 0.000346177, No Iterations 4
smoothSolver:  Solving for Uy, Initial residual = 0.0369137, Final residual = 0.00290692, No Iterations 4
GAMG:  Solving for p, Initial residual = 0.176676, Final residual = 0.024209, No Iterations 1
time step continuity errors : sum local = 1.50207, global = -0.145264, cumulative = 3.9237
smoothSolver:  Solving for omega, Initial residual = 1.85709e-05, Final residual = 8.10655e-07, No Iterations 1
smoothSolver:  Solving for k, Initial residual = 0.00240838, Final residual = 0.000143635, No Iterations 1
ExecutionTime = 3.39 s  ClockTime = 3 s

Time = 116

smoothSolver:  Solving for Ux, Initial residual = 0.00373973, Final residual = 0.000347139, No Iterations 4
smoothSolver:  Solving for Uy, Initial residual = 0.0355286, Final residual = 0.00289297, No Iterations 4
GAMG:  Solving for p, Initial residual = 0.177227, Final residual = 0.0257153, No Iterations 1
time step continuity errors : sum local = 1.54502, global = -0.13396, cumulative = 3.78974
smoothSolver:  Solving for omega, Initial residual = 1.81238e-05, Final residual = 7.97216e-07, No Iterations 1
smoothSolver:  Solving for k, Initial residual = 0.00235912, Final residual = 0.00014088, No Iterations 1
ExecutionTime = 3.44 s  ClockTime = 3 s

Time = 117

smoothSolver:  Solving for Ux, Initial residual = 0.00366503, Final residual = 0.000344437, No Iterations 4
smoothSolver:  Solving for Uy, Initial residual = 0.0354196, Final residual = 0.00300052, No Iterations 4
GAMG:  Solving for p, Initial residual = 0.1727, Final residual = 0.0261375, No Iterations 1
time step continuity errors : sum local = 1.54829, global = -0.166351, cumulative = 3.62339
[...]
GAMG:  Solving for p, Initial residual = 4.12639e-05, Final residual = 7.45317e-06, No Iterations 1
time step continuity errors : sum local = 0.000107901, global = -1.15471e-05, cumulative = -0.288977
smoothSolver:  Solving for omega, Initial residual = 8.9609e-09, Final residual = 7.26366e-10, No Iterations 1
smoothSolver:  Solving for k, Initial residual = 7.88308e-06, Final residual = 8.49266e-08, No Iterations 2
ExecutionTime = 33.6 s  ClockTime = 33 s

Time = 844

smoothSolver:  Solving for Ux, Initial residual = 2.23891e-06, Final residual = 2.23865e-07, No Iterations 5
smoothSolver:  Solving for Uy, Initial residual = 1.24907e-05, Final residual = 8.90857e-07, No Iterations 5
GAMG:  Solving for p, Initial residual = 4.08971e-05, Final residual = 7.36116e-06, No Iterations 1
time step continuity errors : sum local = 0.000106568, global = -1.18977e-05, cumulative = -0.288989
smoothSolver:  Solving for omega, Initial residual = 8.88256e-09, Final residual = 7.1985e-10, No Iterations 1
smoothSolver:  Solving for k, Initial residual = 7.82297e-06, Final residual = 8.42828e-08, No Iterations 2
ExecutionTime = 33.65 s  ClockTime = 33 s

Time = 845

smoothSolver:  Solving for Ux, Initial residual = 2.22079e-06, Final residual = 1.46193e-07, No Iterations 6
smoothSolver:  Solving for Uy, Initial residual = 1.22696e-05, Final residual = 8.73828e-07, No Iterations 5
GAMG:  Solving for p, Initial residual = 4.05296e-05, Final residual = 7.32505e-06, No Iterations 1
time step continuity errors : sum local = 0.000106044, global = -1.22449e-05, cumulative = -0.289001
smoothSolver:  Solving for omega, Initial residual = 8.84991e-09, Final residual = 7.15023e-10, No Iterations 1
smoothSolver:  Solving for k, Initial residual = 7.76245e-06, Final residual = 8.36323e-08, No Iterations 2
ExecutionTime = 33.67 s  ClockTime = 33 s

Time = 846

smoothSolver:  Solving for Ux, Initial residual = 2.20129e-06, Final residual = 1.45041e-07, No Iterations 6
smoothSolver:  Solving for Uy, Initial residual = 1.21081e-05, Final residual = 8.61356e-07, No Iterations 5
GAMG:  Solving for p, Initial residual = 4.01461e-05, Final residual = 7.27746e-06, No Iterations 1
time step continuity errors : sum local = 0.000105354, global = -1.25577e-05, cumulative = -0.289013
smoothSolver:  Solving for omega, Initial residual = 8.79676e-09, Final residual = 7.0984e-10, No Iterations 1
smoothSolver:  Solving for k, Initial residual = 7.70265e-06, Final residual = 8.29899e-08, No Iterations 2
ExecutionTime = 33.73 s  ClockTime = 34 s

Time = 847

smoothSolver:  Solving for Ux, Initial residual = 2.1839e-06, Final residual = 1.43904e-07, No Iterations 6
smoothSolver:  Solving for Uy, Initial residual = 1.20058e-05, Final residual = 8.53558e-07, No Iterations 5
GAMG:  Solving for p, Initial residual = 3.97504e-05, Final residual = 7.2247e-06, No Iterations 1
time step continuity errors : sum local = 0.000104589, global = -1.28359e-05, cumulative = -0.289026
smoothSolver:  Solving for omega, Initial residual = 8.73642e-09, Final residual = 7.04434e-10, No Iterations 1
smoothSolver:  Solving for k, Initial residual = 7.64326e-06, Final residual = 8.23519e-08, No Iterations 2
ExecutionTime = 33.76 s  ClockTime = 34 s

Time = 848

smoothSolver:  Solving for Ux, Initial residual = 2.16802e-06, Final residual = 1.42786e-07, No Iterations 6
smoothSolver:  Solving for Uy, Initial residual = 1.19479e-05, Final residual = 8.49523e-07, No Iterations 5
GAMG:  Solving for p, Initial residual = 3.93619e-05, Final residual = 7.17067e-06, No Iterations 1
time step continuity errors : sum local = 0.000103806, global = -1.31173e-05, cumulative = -0.289039
smoothSolver:  Solving for omega, Initial residual = 8.67413e-09, Final residual = 6.98949e-10, No Iterations 1
smoothSolver:  Solving for k, Initial residual = 7.58425e-06, Final residual = 8.17182e-08, No Iterations 2
ExecutionTime = 33.82 s  ClockTime = 34 s

Time = 849

smoothSolver:  Solving for Ux, Initial residual = 2.15333e-06, Final residual = 1.41688e-07, No Iterations 6
smoothSolver:  Solving for Uy, Initial residual = 1.19137e-05, Final residual = 8.47784e-07, No Iterations 5
GAMG:  Solving for p, Initial residual = 3.89987e-05, Final residual = 7.11662e-06, No Iterations 1
time step continuity errors : sum local = 0.000103022, global = -1.34283e-05, cumulative = -0.289053
smoothSolver:  Solving for omega, Initial residual = 8.61434e-09, Final residual = 6.93537e-10, No Iterations 1
smoothSolver:  Solving for k, Initial residual = 7.52562e-06, Final residual = 8.10884e-08, No Iterations 2
ExecutionTime = 33.86 s  ClockTime = 34 s

Time = 850

smoothSolver:  Solving for Ux, Initial residual = 2.13936e-06, Final residual = 2.13889e-07, No Iterations 5
smoothSolver:  Solving for Uy, Initial residual = 1.18847e-05, Final residual = 8.46721e-07, No Iterations 5
GAMG:  Solving for p, Initial residual = 3.86092e-05, Final residual = 7.02425e-06, No Iterations 1
time step continuity errors : sum local = 0.000101684, global = -1.38687e-05, cumulative = -0.289067
smoothSolver:  Solving for omega, Initial residual = 8.51419e-09, Final residual = 6.86728e-10, No Iterations 1
smoothSolver:  Solving for k, Initial residual = 7.46802e-06, Final residual = 8.04719e-08, No Iterations 2
ExecutionTime = 33.89 s  ClockTime = 34 s

Time = 851

smoothSolver:  Solving for Ux, Initial residual = 2.12673e-06, Final residual = 2.12562e-07, No Iterations 5
smoothSolver:  Solving for Uy, Initial residual = 1.17901e-05, Final residual = 8.40143e-07, No Iterations 5
GAMG:  Solving for p, Initial residual = 3.82367e-05, Final residual = 6.97035e-06, No Iterations 1
time step continuity errors : sum local = 0.000100903, global = -1.4428e-05, cumulative = -0.289081
smoothSolver:  Solving for omega, Initial residual = 8.4341e-09, Final residual = 6.80423e-10, No Iterations 1
smoothSolver:  Solving for k, Initial residual = 7.41041e-06, Final residual = 7.98546e-08, No Iterations 2
ExecutionTime = 33.95 s  ClockTime = 34 s

Time = 852

smoothSolver:  Solving for Ux, Initial residual = 2.11262e-06, Final residual = 2.11186e-07, No Iterations 5
smoothSolver:  Solving for Uy, Initial residual = 1.16452e-05, Final residual = 8.29393e-07, No Iterations 5
GAMG:  Solving for p, Initial residual = 3.78648e-05, Final residual = 6.9358e-06, No Iterations 1
time step continuity errors : sum local = 0.000100402, global = -1.50689e-05, cumulative = -0.289096
smoothSolver:  Solving for omega, Initial residual = 8.36103e-09, Final residual = 6.74364e-10, No Iterations 1
smoothSolver:  Solving for k, Initial residual = 7.35308e-06, Final residual = 7.92401e-08, No Iterations 2
ExecutionTime = 33.97 s  ClockTime = 34 s

Time = 853

smoothSolver:  Solving for Ux, Initial residual = 2.0973e-06, Final residual = 1.37917e-07, No Iterations 6
smoothSolver:  Solving for Uy, Initial residual = 1.14707e-05, Final residual = 8.16325e-07, No Iterations 5
GAMG:  Solving for p, Initial residual = 3.75248e-05, Final residual = 6.94642e-06, No Iterations 1
time step continuity errors : sum local = 0.000100554, global = -1.56522e-05, cumulative = -0.289112
smoothSolver:  Solving for omega, Initial residual = 8.33153e-09, Final residual = 6.69967e-10, No Iterations 1
smoothSolver:  Solving for k, Initial residual = 7.29542e-06, Final residual = 7.86196e-08, No Iterations 2
ExecutionTime = 34.02 s  ClockTime = 34 s

Time = 854

smoothSolver:  Solving for Ux, Initial residual = 2.08008e-06, Final residual = 1.36778e-07, No Iterations 6
smoothSolver:  Solving for Uy, Initial residual = 1.13443e-05, Final residual = 8.07535e-07, No Iterations 5
GAMG:  Solving for p, Initial residual = 3.71851e-05, Final residual = 2.78534e-06, No Iterations 2
time step continuity errors : sum local = 4.03193e-05, global = -1.40467e-05, cumulative = -0.289126
smoothSolver:  Solving for omega, Initial residual = 8.30475e-09, Final residual = 6.66732e-10, No Iterations 1
smoothSolver:  Solving for k, Initial residual = 7.24001e-06, Final residual = 7.80202e-08, No Iterations 2
ExecutionTime = 34.07 s  ClockTime = 34 s

Time = 855

smoothSolver:  Solving for Ux, Initial residual = 2.08276e-06, Final residual = 2.07919e-07, No Iterations 5
smoothSolver:  Solving for Uy, Initial residual = 1.17146e-05, Final residual = 8.21433e-07, No Iterations 5
GAMG:  Solving for p, Initial residual = 3.62726e-05, Final residual = 6.47499e-06, No Iterations 1
time step continuity errors : sum local = 9.37267e-05, global = -1.10135e-05, cumulative = -0.289137
smoothSolver:  Solving for omega, Initial residual = 8.21772e-09, Final residual = 6.59668e-10, No Iterations 1
smoothSolver:  Solving for k, Initial residual = 7.18384e-06, Final residual = 7.74188e-08, No Iterations 2
ExecutionTime = 34.13 s  ClockTime = 34 s

Time = 856

smoothSolver:  Solving for Ux, Initial residual = 2.05696e-06, Final residual = 1.35148e-07, No Iterations 6
smoothSolver:  Solving for Uy, Initial residual = 1.1493e-05, Final residual = 8.14876e-07, No Iterations 5
GAMG:  Solving for p, Initial residual = 3.61008e-05, Final residual = 6.44286e-06, No Iterations 1
time step continuity errors : sum local = 9.32607e-05, global = -1.13981e-05, cumulative = -0.289148
smoothSolver:  Solving for omega, Initial residual = 8.1677e-09, Final residual = 6.54761e-10, No Iterations 1
smoothSolver:  Solving for k, Initial residual = 7.12727e-06, Final residual = 7.68114e-08, No Iterations 2
ExecutionTime = 34.17 s  ClockTime = 34 s

Time = 857

smoothSolver:  Solving for Ux, Initial residual = 2.03247e-06, Final residual = 1.34072e-07, No Iterations 6
smoothSolver:  Solving for Uy, Initial residual = 1.12605e-05, Final residual = 8.06555e-07, No Iterations 5
GAMG:  Solving for p, Initial residual = 3.59184e-05, Final residual = 6.50613e-06, No Iterations 1
time step continuity errors : sum local = 9.41759e-05, global = -1.18979e-05, cumulative = -0.28916
smoothSolver:  Solving for omega, Initial residual = 8.11195e-09, Final residual = 6.49845e-10, No Iterations 1
smoothSolver:  Solving for k, Initial residual = 7.07137e-06, Final residual = 7.62103e-08, No Iterations 2
ExecutionTime = 34.21 s  ClockTime = 34 s

Time = 858

smoothSolver:  Solving for Ux, Initial residual = 2.0069e-06, Final residual = 1.32888e-07, No Iterations 6
smoothSolver:  Solving for Uy, Initial residual = 1.10312e-05, Final residual = 7.9449e-07, No Iterations 5
GAMG:  Solving for p, Initial residual = 3.56631e-05, Final residual = 6.58825e-06, No Iterations 1
time step continuity errors : sum local = 9.53638e-05, global = -1.24613e-05, cumulative = -0.289173
smoothSolver:  Solving for omega, Initial residual = 8.04868e-09, Final residual = 6.44738e-10, No Iterations 1
smoothSolver:  Solving for k, Initial residual = 7.01576e-06, Final residual = 7.56125e-08, No Iterations 2
ExecutionTime = 34.24 s  ClockTime = 34 s

Time = 859

smoothSolver:  Solving for Ux, Initial residual = 1.98304e-06, Final residual = 1.31649e-07, No Iterations 6
smoothSolver:  Solving for Uy, Initial residual = 1.08378e-05, Final residual = 7.81174e-07, No Iterations 5
GAMG:  Solving for p, Initial residual = 3.5333e-05, Final residual = 6.62967e-06, No Iterations 1
time step continuity errors : sum local = 9.59624e-05, global = -1.29594e-05, cumulative = -0.289185
smoothSolver:  Solving for omega, Initial residual = 7.98206e-09, Final residual = 6.39467e-10, No Iterations 1
smoothSolver:  Solving for k, Initial residual = 6.96049e-06, Final residual = 7.50185e-08, No Iterations 2
ExecutionTime = 34.29 s  ClockTime = 34 s

Time = 860

smoothSolver:  Solving for Ux, Initial residual = 1.96359e-06, Final residual = 1.30408e-07, No Iterations 6
smoothSolver:  Solving for Uy, Initial residual = 1.07063e-05, Final residual = 7.69717e-07, No Iterations 5
GAMG:  Solving for p, Initial residual = 3.49785e-05, Final residual = 2.61222e-06, No Iterations 2
time step continuity errors : sum local = 3.78108e-05, global = -1.19353e-05, cumulative = -0.289197
smoothSolver:  Solving for omega, Initial residual = 7.94464e-09, Final residual = 6.35576e-10, No Iterations 1
smoothSolver:  Solving for k, Initial residual = 6.90719e-06, Final residual = 7.44426e-08, No Iterations 2
ExecutionTime = 34.32 s  ClockTime = 34 s

Time = 861

smoothSolver:  Solving for Ux, Initial residual = 1.96825e-06, Final residual = 1.30033e-07, No Iterations 6
smoothSolver:  Solving for Uy, Initial residual = 1.10844e-05, Final residual = 7.8164e-07, No Iterations 5
GAMG:  Solving for p, Initial residual = 3.41509e-05, Final residual = 6.6587e-06, No Iterations 1
time step continuity errors : sum local = 9.63798e-05, global = 1.65364e-06, cumulative = -0.289196
smoothSolver:  Solving for omega, Initial residual = 7.89863e-09, Final residual = 6.3021e-10, No Iterations 1
smoothSolver:  Solving for k, Initial residual = 6.85198e-06, Final residual = 7.38504e-08, No Iterations 2
ExecutionTime = 34.38 s  ClockTime = 34 s

Time = 862

smoothSolver:  Solving for Ux, Initial residual = 1.94724e-06, Final residual = 1.28648e-07, No Iterations 6
smoothSolver:  Solving for Uy, Initial residual = 1.09612e-05, Final residual = 7.77215e-07, No Iterations 5
GAMG:  Solving for p, Initial residual = 3.3976e-05, Final residual = 6.15146e-06, No Iterations 1
time step continuity errors : sum local = 8.90365e-05, global = -8.15929e-06, cumulative = -0.289204
smoothSolver:  Solving for omega, Initial residual = 7.81515e-09, Final residual = 6.24704e-10, No Iterations 1
smoothSolver:  Solving for k, Initial residual = 6.79785e-06, Final residual = 7.32698e-08, No Iterations 2
ExecutionTime = 34.41 s  ClockTime = 34 s

Time = 863

smoothSolver:  Solving for Ux, Initial residual = 1.92657e-06, Final residual = 1.27671e-07, No Iterations 6
smoothSolver:  Solving for Uy, Initial residual = 1.07789e-05, Final residual = 7.71872e-07, No Iterations 5
GAMG:  Solving for p, Initial residual = 3.39337e-05, Final residual = 6.19468e-06, No Iterations 1
time step continuity errors : sum local = 8.96614e-05, global = -7.13198e-06, cumulative = -0.289211
smoothSolver:  Solving for omega, Initial residual = 7.74835e-09, Final residual = 6.19624e-10, No Iterations 1
smoothSolver:  Solving for k, Initial residual = 6.74412e-06, Final residual = 7.26926e-08, No Iterations 2
ExecutionTime = 34.44 s  ClockTime = 34 s

Time = 864

smoothSolver:  Solving for Ux, Initial residual = 1.90472e-06, Final residual = 1.26536e-07, No Iterations 6
smoothSolver:  Solving for Uy, Initial residual = 1.05901e-05, Final residual = 7.61884e-07, No Iterations 5
GAMG:  Solving for p, Initial residual = 3.38706e-05, Final residual = 6.25532e-06, No Iterations 1
time step continuity errors : sum local = 9.05384e-05, global = -6.51903e-06, cumulative = -0.289218
smoothSolver:  Solving for omega, Initial residual = 7.68623e-09, Final residual = 6.14648e-10, No Iterations 1
smoothSolver:  Solving for k, Initial residual = 6.69077e-06, Final residual = 7.21194e-08, No Iterations 2
ExecutionTime = 34.5 s  ClockTime = 34 s

Time = 865

smoothSolver:  Solving for Ux, Initial residual = 1.88442e-06, Final residual = 1.25346e-07, No Iterations 6
smoothSolver:  Solving for Uy, Initial residual = 1.0409e-05, Final residual = 7.49448e-07, No Iterations 5
GAMG:  Solving for p, Initial residual = 3.3729e-05, Final residual = 6.29225e-06, No Iterations 1
time step continuity errors : sum local = 9.10722e-05, global = -6.13425e-06, cumulative = -0.289224
smoothSolver:  Solving for omega, Initial residual = 7.62616e-09, Final residual = 6.0972e-10, No Iterations 1
smoothSolver:  Solving for k, Initial residual = 6.63783e-06, Final residual = 7.15506e-08, No Iterations 2
ExecutionTime = 34.52 s  ClockTime = 34 s

Time = 866

smoothSolver:  Solving for Ux, Initial residual = 1.86676e-06, Final residual = 1.24167e-07, No Iterations 6
smoothSolver:  Solving for Uy, Initial residual = 1.02632e-05, Final residual = 7.3741e-07, No Iterations 5
GAMG:  Solving for p, Initial residual = 3.34877e-05, Final residual = 6.28661e-06, No Iterations 1
time step continuity errors : sum local = 9.09899e-05, global = -5.82533e-06, cumulative = -0.28923
smoothSolver:  Solving for omega, Initial residual = 7.57087e-09, Final residual = 6.04911e-10, No Iterations 1
smoothSolver:  Solving for k, Initial residual = 6.58534e-06, Final residual = 7.09865e-08, No Iterations 2
ExecutionTime = 34.57 s  ClockTime = 34 s

Time = 867

smoothSolver:  Solving for Ux, Initial residual = 1.852e-06, Final residual = 1.23034e-07, No Iterations 6
smoothSolver:  Solving for Uy, Initial residual = 1.01655e-05, Final residual = 7.27854e-07, No Iterations 5
GAMG:  Solving for p, Initial residual = 3.31808e-05, Final residual = 6.24504e-06, No Iterations 1
time step continuity errors : sum local = 9.03876e-05, global = -5.5477e-06, cumulative = -0.289235
smoothSolver:  Solving for omega, Initial residual = 7.5168e-09, Final residual = 6.00222e-10, No Iterations 1
smoothSolver:  Solving for k, Initial residual = 6.5333e-06, Final residual = 7.04273e-08, No Iterations 2
ExecutionTime = 34.62 s  ClockTime = 34 s

Time = 868

smoothSolver:  Solving for Ux, Initial residual = 1.8394e-06, Final residual = 1.21951e-07, No Iterations 6
smoothSolver:  Solving for Uy, Initial residual = 1.01099e-05, Final residual = 7.21514e-07, No Iterations 5
GAMG:  Solving for p, Initial residual = 3.28755e-05, Final residual = 6.16914e-06, No Iterations 1
time step continuity errors : sum local = 8.92883e-05, global = -3.31611e-06, cumulative = -0.289238
smoothSolver:  Solving for omega, Initial residual = 7.46229e-09, Final residual = 5.95568e-10, No Iterations 1
smoothSolver:  Solving for k, Initial residual = 6.48171e-06, Final residual = 6.98726e-08, No Iterations 2
ExecutionTime = 34.66 s  ClockTime = 34 s

Time = 869

smoothSolver:  Solving for Ux, Initial residual = 1.82856e-06, Final residual = 1.2089e-07, No Iterations 6
smoothSolver:  Solving for Uy, Initial residual = 1.00782e-05, Final residual = 7.17766e-07, No Iterations 5
GAMG:  Solving for p, Initial residual = 3.26221e-05, Final residual = 6.12923e-06, No Iterations 1
time step continuity errors : sum local = 8.87099e-05, global = -5.50422e-06, cumulative = -0.289244
smoothSolver:  Solving for omega, Initial residual = 7.40715e-09, Final residual = 5.90947e-10, No Iterations 1
smoothSolver:  Solving for k, Initial residual = 6.4306e-06, Final residual = 6.93231e-08, No Iterations 2
ExecutionTime = 34.71 s  ClockTime = 34 s

Time = 870

smoothSolver:  Solving for Ux, Initial residual = 1.81674e-06, Final residual = 1.19876e-07, No Iterations 6
smoothSolver:  Solving for Uy, Initial residual = 1.00428e-05, Final residual = 7.15094e-07, No Iterations 5
GAMG:  Solving for p, Initial residual = 3.23959e-05, Final residual = 6.03239e-06, No Iterations 1
time step continuity errors : sum local = 8.73076e-05, global = -3.3687e-06, cumulative = -0.289247
smoothSolver:  Solving for omega, Initial residual = 7.35241e-09, Final residual = 5.8634e-10, No Iterations 1
smoothSolver:  Solving for k, Initial residual = 6.37992e-06, Final residual = 6.87779e-08, No Iterations 2
ExecutionTime = 34.73 s  ClockTime = 35 s

Time = 871

smoothSolver:  Solving for Ux, Initial residual = 1.80536e-06, Final residual = 1.18856e-07, No Iterations 6
smoothSolver:  Solving for Uy, Initial residual = 9.99905e-06, Final residual = 7.1217e-07, No Iterations 5
GAMG:  Solving for p, Initial residual = 3.21846e-05, Final residual = 5.99744e-06, No Iterations 1
time step continuity errors : sum local = 8.68011e-05, global = -5.79905e-06, cumulative = -0.289253
smoothSolver:  Solving for omega, Initial residual = 7.2971e-09, Final residual = 5.81753e-10, No Iterations 1
smoothSolver:  Solving for k, Initial residual = 6.32966e-06, Final residual = 6.82375e-08, No Iterations 2
ExecutionTime = 34.77 s  ClockTime = 35 s


SIMPLE solution converged in 871 iterations

End

