/*---------------------------------------------------------------------------*\
| =========                 |                                                 |
| \\      /  F ield         | OpenFOAM: The Open Source CFD Toolbox           |
|  \\    /   O peration     | Version:  2312                                  |
|   \\  /    A nd           | Website:  www.openfoam.com                      |
|    \\/     M anipulation  |                                                 |
\*---------------------------------------------------------------------------*/
Build  : _1d8f0d55f7-20231221 OPENFOAM=2312 version=v2312
Arch   : "LSB;label=64;scalar=64"
Exec   : simpleFoam
Date   : Apr 07 2024
Time   : 16:24:38
Host   : adroit5
PID    : 3069715
I/O    : uncollated
Case   : /home/jhcai/NN_Pred/OpenFOAM-Extension/tutorials/turbulent_channel/Cases/Re_180_kwSST
nProcs : 1
trapFpe: Floating point exception trapping enabled (FOAM_SIGFPE).
fileModificationChecking : Monitoring run-time modified files using timeStampMaster (fileModificationSkew 5, maxFileModificationPolls 20)
allowSystemOperations : Allowing user-supplied system call operations

// * * * * * * * * * * * * * * * * * * * * * * * * * * * * * * * * * * * * * //
Create time

Create mesh for time = 5000


SIMPLE: convergence criteria
    field p	 tolerance 0.001
    field U	 tolerance 1e-06
    field "(k|epsilon)"	 tolerance 1e-06

Reading field p

Reading field U

Reading/calculating face flux field phi

Selecting incompressible transport model Newtonian
Selecting turbulence model type RAS
Selecting RAS turbulence model kOmegaSST
Selecting patchDistMethod meshWave
bounding k, min: 0 max: 2.95046e-05 average: 1.966e-05
RAS
{
    RASModel        kOmegaSST;
    turbulence      on;
    printCoeffs     on;
    DNSMapFieldCoeffs
    {
        filter          simple;
    }
    alphaK1         0.85;
    alphaK2         1;
    alphaOmega1     0.5;
    alphaOmega2     0.856;
    gamma1          0.555556;
    gamma2          0.44;
    beta1           0.075;
    beta2           0.0828;
    betaStar        0.09;
    a1              0.31;
    b1              1;
    c1              10;
    F3              false;
    decayControl    false;
    kInf            0;
    omegaInf        0;
}

No MRF models present

Creating finite volume options from "constant/fvOptions"

Selecting finite volume options type meanVelocityForce
    Source: momentumSource
    - selecting all cells
    - selected 6552 cell(s) with volume 0.03
    Reading pressure gradient from file
    Initial pressure gradient = 1.29387e-05


Starting time loop

End

