/*---------------------------------------------------------------------------*\
| =========                 |                                                 |
| \\      /  F ield         | OpenFOAM: The Open Source CFD Toolbox           |
|  \\    /   O peration     | Version:  5.x                                   |
|   \\  /    A nd           | Web:      www.OpenFOAM.org                      |
|    \\/     M anipulation  |                                                 |
\*---------------------------------------------------------------------------*/
Build  : 5.x-7f7d351b741b
Exec   : potentialFoam -writep
Date   : Sep 09 2019
Time   : 13:34:15
Host   : "rmlans"
PID    : 27417
I/O    : uncollated
Case   : /home/rmlans/Desktop/3D_Turbulence/OF_TF_Coupling/ML_SA_OF_TF/Machine_Learning_SS/Surrogate_Model_SS/Setup
nProcs : 1
sigFpe : Enabling floating point exception trapping (FOAM_SIGFPE).
fileModificationChecking : Monitoring run-time modified files using timeStampMaster (fileModificationSkew 10)
allowSystemOperations : Allowing user-supplied system call operations

// * * * * * * * * * * * * * * * * * * * * * * * * * * * * * * * * * * * * * //
Create time

--> FOAM Warning : 
    From function void* Foam::dlOpen(const Foam::fileName&, bool)
    in file POSIX.C at line 1236
    dlopen error : /home/rmlans/OpenFOAM/rmlans-5.x/platforms/linux64GccDPInt64Opt/lib/SA_Detailed.so: undefined symbol: _ZTIN4Foam29incompressibleTurbulenceModelE
--> FOAM Warning : 
    From function bool Foam::dlLibraryTable::open(const Foam::fileName&, bool)
    in file db/dynamicLibrary/dlLibraryTable/dlLibraryTable.C at line 105
    could not load "SA_Detailed.so"
Create mesh for time = 0


potentialFlow: Operating solver in PISO mode

Reading velocity field U

Constructing pressure field p

Constructing velocity potential field Phi

No MRF models present


Calculating potential flow
GAMG:  Solving for Phi, Initial residual = 1, Final residual = 0.00951713, No Iterations 45
GAMG:  Solving for Phi, Initial residual = 0.387565, Final residual = 0.00338537, No Iterations 2
GAMG:  Solving for Phi, Initial residual = 0.0105713, Final residual = 7.67108e-05, No Iterations 5
GAMG:  Solving for Phi, Initial residual = 0.00072567, Final residual = 6.14208e-06, No Iterations 8
Continuity error = 0.0103565
Interpolated velocity error = 3.49793e-05

Calculating approximate pressure field
GAMG:  Solving for p, Initial residual = 1, Final residual = 0.00980455, No Iterations 3
GAMG:  Solving for p, Initial residual = 0.0117225, Final residual = 0.00010592, No Iterations 8
GAMG:  Solving for p, Initial residual = 0.000833722, Final residual = 6.94115e-06, No Iterations 11
GAMG:  Solving for p, Initial residual = 0.000218329, Final residual = 1.84905e-06, No Iterations 9
ExecutionTime = 0.31 s  ClockTime = 1 s

End

